672
 1.813500 0.000000 0.000000 -0.026998 4.730310 0.000000 -0.659411 0.009827 1.945883
X 0.47322000000000003 8.53639 12.79587 0.634725
X 6.22161 0.88591 2.47702 0.767203
X 5.994549999999999 7.09396 14.35224 0.663803
X 6.13549 46.66744 5.20645 0.986662
X 15.04917 19.78726 0.7818 0.669862
X 7.56737 4.86937 19.04871 0.738323
X 11.055410000000002 6.027810000000001 14.035779999999999 0.619394
X 13.235 5.62045 11.25457 0.633620
X -1.0881 15.63572 9.83654 0.662924
X 5.5642499999999995 13.307450000000001 17.5763 0.675731
X -3.7721500000000003 46.66207 17.720100000000002 0.761705
X -4.64557 6.07268 15.18741 0.635171
X 2.07372 9.653310000000001 2.3568800000000003 0.727669
X 0.25345 15.97575 18.79749 0.694455
X 14.02545 3.5551700000000004 5.07638 0.690015
X 1.41534 18.21367 17.81691 0.621549
X 1.9869899999999998 9.217649999999999 10.385089999999998 0.660114
X 0.27732 8.43357 4.1531 0.639237
X 13.46412 3.46537 13.05072 0.650104
X 7.21057 12.95171 3.1863200000000003 0.660551
X 15.09984 12.93399 8.63012 0.658354
X 4.847580000000001 22.41927 2.2925999999999997 0.760233
X 6.63705 18.42242 18.33852 0.743523
X 2.90467 46.45108999999999 1.9958200000000001 0.862598
X -1.4791699999999999 4.18755 17.1505 0.615986
X 3.9794099999999997 4.08981 0.17362 0.621791
X 8.76465 1.6450300000000002 9.19767 0.738701
X 16.37694 12.0288 2.30695 0.669054
X 12.34076 47.075019999999995 5.3773 0.959730
X 10.50141 7.53331 17.8074 0.682037
X 2.46446 17.33686 10.1413 0.752254
X -5.434989999999999 4.0403 18.44457 0.640283
X 3.2975700000000003 46.89234 5.49808 0.919490
X 0.47239000000000003 18.72112 11.434759999999999 0.660517
X 1.8996199999999999 5.23139 5.95943 0.709079
X 3.76099 6.36189 15.749010000000002 0.684034
X 16.55518 4.15329 2.62508 0.682466
X 5.29405 5.290240000000001 7.85873 0.687807
X 4.47618 3.16092 14.07996 0.849839
X 9.6362 4.01714 6.39325 0.701572
X 11.12988 3.0187999999999997 16.40252 0.655345
X -1.91844 2.4443 6.67631 0.665062
X 0.78361 5.663970000000001 17.01569 0.627344
X -0.33320000000000005 1.6067999999999998 17.07537 0.748847
X 7.29723 19.50275 16.03297 0.741453
X 12.947120000000002 10.14694 6.591 0.693532
X -0.43717 5.6686000000000005 4.5614799999999995 0.682123
X 12.61017 0.10633000000000001 9.8246 0.787490
X 14.78782 4.75134 8.820409999999999 0.671366
X -1.00814 15.556700000000001 4.26948 0.701226
X 8.48249 46.96703 7.408200000000001 0.923691
X 12.36439 46.14175 2.09975 0.983250
X 5.01121 46.51184 17.51969 0.858691
X 1.21585 1.97016 0.6840599999999999 0.739486
X -1.23928 8.768139999999999 10.67725 0.587346
X 14.63439 14.9644 3.0659199999999998 0.702316
X 14.01572 5.40966 2.29245 0.756886
X -1.37856 2.83874 9.41944 0.604798
X 5.21681 14.04448 8.62363 0.696725
X -0.5094 16.43656 14.87479 0.601791
X 0.6256200000000001 1.3260800000000001 10.71337 0.806289
X 15.362849999999998 47.19407 5.46135 0.894902
X 12.382089999999998 7.90791 1.1356199999999999 0.679890
X -0.06765 47.227430000000005 19.15973 0.789801
X 2.543 12.70381 15.293399999999998 0.649662
X 0.53072 22.004260000000002 16.78972 0.828510
X 12.61318 6.1333899999999995 5.159129999999999 0.671495
X 11.10463 19.05209 6.38271 0.810243
X 8.602419999999999 15.050749999999999 4.48533 0.657882
X -5.23752 20.78098 18.38582 0.666545
X 0.03016 2.2642100000000003 4.74533 0.628160
X 4.92257 15.50185 3.12487 0.662579
X 11.19091 8.45791 3.61089 0.714213
X -2.2011 9.95245 8.11172 0.697591
X 6.53046 9.12824 1.67014 0.602898
X 14.217979999999999 15.44173 8.24769 0.691962
X 9.816089999999999 18.71251 15.24766 0.663880
X 3.3101700000000003 11.94266 8.289729999999999 0.668532
X 8.76873 0.9192500000000001 12.906379999999999 0.714882
X 14.486 8.02986 5.745360000000001 0.679437
X 16.32608 10.05803 4.87153 0.672743
X 5.74199 11.585780000000002 12.06517 0.661271
X 3.95045 1.76967 3.59991 0.770330
X 9.29487 17.81426 4.55431 0.715970
X 9.51334 17.24778 1.6503 0.678505
X 6.2314099999999994 1.7270699999999999 6.641019999999999 0.868051
X 2.77147 17.56646 13.65016 0.697357
X 10.658570000000001 12.0505 8.0677 0.753761
X 2.19111 3.69591 15.40034 0.732316
X 8.54658 13.100439999999999 13.54697 0.685228
X 10.534239999999999 16.34944 7.48203 0.631500
X 7.832179999999999 8.72156 19.1856 0.709469
X 13.5661 11.45555 10.512999999999998 0.721713
X 10.94865 5.06091 10.06291 0.646450
X 10.87516 18.93493 18.128519999999998 0.664474
X 8.65014 14.011899999999999 7.18569 0.667009
X 0.4255 11.507050000000001 3.81275 0.671660
X 13.28622 22.005200000000002 7.114129999999999 0.842744
X 8.48113 20.494629999999997 2.25657 0.751057
X 4.26793 8.3228 11.35308 0.622693
X 12.66143 15.73176 5.50722 0.688832
X 9.9098 8.55733 10.294220000000001 0.726747
X 2.06751 6.327439999999999 2.11789 0.674044
X -0.03281 19.05041 15.58358 0.674926
X 13.50746 19.75822 5.26403 0.808279
X 11.05695 5.6878899999999994 0.04555 0.702671
X -3.12038 14.81307 11.54884 0.692720
X -2.7660099999999996 47.05615 13.12314 0.811670
X 7.64664 16.25985 8.50186 0.668218
X 4.0940199999999995 16.227249999999998 7.10604 0.661213
X 14.59489 12.77259 4.9809399999999995 0.708828
X 11.42062 21.47112 0.19391999999999998 0.812612
X -0.5365099999999999 18.1522 4.50404 0.670654
X 8.104759999999999 21.53989 13.890469999999999 0.767435
X 12.21298 14.8309 13.527190000000001 0.685347
X 0.8154300000000001 14.619230000000002 16.44058 0.646345
X -2.22903 1.34961 19.44133 0.717198
X 12.10795 17.612659999999998 12.134789999999999 0.697115
X 9.53538 5.36439 16.31585 0.675455
X 6.818490000000001 6.99799 17.14402 0.684987
X 1.3597899999999998 21.981769999999997 5.085389999999999 0.754607
X -2.92312 16.39847 13.781030000000001 0.636349
X 8.15554 7.89796 3.5367900000000003 0.718319
X 17.08124 9.95379 0.73197 0.684070
X -2.5722 16.57968 18.84393 0.693054
X -0.8742800000000001 16.93036 7.39484 0.687982
X 8.72638 15.881670000000002 12.34206 0.656381
X 12.57638 14.00061 10.368120000000001 0.705234
X 13.872020000000001 20.413899999999998 9.25127 0.702572
X 7.050269999999999 4.30425 15.574840000000002 0.692959
X -1.663 22.40724 14.93747 0.739134
X 0.48284 10.514019999999999 8.62537 0.660879
X 9.67803 0.8531900000000001 17.47659 0.713725
X 4.18968 21.75046 7.24811 0.803435
X 4.04043 18.16876 18.92718 0.709520
X 6.36247 8.5853 9.44472 0.663131
X 4.06571 15.20797 12.33103 0.724982
X -1.76707 20.14537 5.79549 0.665764
X 9.67151 17.60491 9.97896 0.662708
X 6.390280000000001 17.24906 6.23088 0.691965
X 11.094999999999999 2.26774 10.60681 0.615451
X 3.11112 19.260550000000002 2.26845 0.680741
X 8.11569 22.41313 4.76333 0.842956
X -1.34343 12.76969 18.49142 0.664468
X 2.9379 21.26545 10.00048 0.626897
X -2.0027 6.3910599999999995 14.12661 0.613915
X -3.64157 10.28308 19.26569 0.638704
X -1.8762499999999998 21.63135 9.863570000000001 0.810207
X 7.6928399999999995 12.93346 10.27438 0.737086
X 7.75878 20.65032 7.00472 0.734364
X 11.92628 19.71695 13.844399999999998 0.768947
X 4.54885 5.74281 12.25995 0.665988
X 15.327470000000002 1.39411 2.88476 0.853652
X 6.8253200000000005 12.212050000000001 6.518319999999999 0.691446
X -2.30701 18.29097 11.75279 0.676233
X 17.37656 7.15687 1.4926400000000002 0.720099
X 1.56447 15.94278 6.245340000000001 0.640163
X 1.44671 12.6006 12.647639999999999 0.679407
X 11.98277 16.21179 17.04675 0.643174
X 4.20942 20.419719999999998 16.26416 0.739841
X 16.69491 22.10096 1.23505 0.801847
X 10.81405 22.090200000000003 8.13985 0.930145
X -1.2324 13.617379999999999 6.47704 0.681546
X 0.33866 20.25992 19.09489 0.790877
X 14.11411 7.86219 8.94315 0.652447
X 6.8571800000000005 19.27903 4.05237 0.729693
X 3.6691800000000003 15.38025 17.08773 0.756005
X 10.82286 21.73431 4.8814 0.908816
X 3.0074699999999996 46.66307 15.39098 0.905486
X 0.33104 46.65005 15.17634 0.893263
X 12.83805 13.12418 7.04214 0.689810
X 14.80341 17.15701 6.06841 0.695857
X -3.81412 3.53656 15.894269999999999 0.629931
X 11.94144 17.44921 3.0595299999999996 0.769065
X -4.45759 10.818399999999999 15.47484 0.585261
X 6.95719 7.00125 6.129670000000001 0.768917
X 9.53727 5.6401699999999995 3.97869 0.713711
X 12.68262 1.6586100000000001 3.53596 0.785114
X -4.59669 6.98958 18.75642 0.656297
X 11.863980000000002 6.51437 7.97307 0.710800
X 6.42732 10.14329 15.97767 0.633559
X 5.05929 10.02365 7.26079 0.684986
X 11.31036 1.9184 13.70706 0.707546
X 8.707080000000001 9.342690000000001 0.23657 0.651890
X -1.9826199999999998 6.13032 6.8639399999999995 0.663760
X 4.8796800000000005 18.42566 10.38082 0.705281
X 4.5764 9.645059999999999 13.861609999999999 0.696407
X -1.30244 8.18298 16.12182 0.609649
X 1.2159 8.48309 17.069000000000003 0.620439
X 14.112309999999999 17.63387 9.69933 0.659233
X -6.38612 47.014810000000004 18.60528 0.819581
X 0.02236 46.41753 12.40663 0.893301
X -3.58007 7.85641 12.239830000000001 0.599362
X 8.64159 15.44054 17.45498 0.643722
X 2.9775 0.90903 13.15223 0.910173
X -3.11016 1.92762 11.51674 0.702558
X 12.23212 47.059709999999995 14.92942 0.834728
X 9.25588 46.692499999999995 15.122599999999998 0.812017
X 12.156070000000001 9.62415 9.213090000000001 0.712297
X 7.44803 2.21812 17.808040000000002 0.695768
X 4.42757 8.28051 17.481279999999998 0.676888
X 1.80342 3.6734400000000003 3.0200199999999997 0.716983
X 4.00892 7.941120000000001 3.10128 0.701250
X 3.49243 7.238860000000001 7.11526 0.704593
X 4.8355 4.08904 17.155530000000002 0.727782
X 13.449720000000001 11.378870000000001 0.57598 0.713728
X 11.7956 11.052439999999999 4.174379999999999 0.657807
X 3.21059 1.73509 17.00901 0.819546
X -0.45315 47.03992 8.323120000000001 0.813678
X 6.2043 46.35992 8.60467 0.970179
X 1.93966 9.51028 6.146509999999999 0.684389
X 7.84262 2.98068 4.55297 0.665830
X 13.15796 10.17028 12.85977 0.644306
X -1.85018 11.4219 11.08008 0.666555
X -3.1950600000000002 46.76008 8.90835 0.886198
X 8.316099999999999 10.481499999999999 12.574069999999999 0.693734
X -5.215450000000001 14.02337 18.81365 0.642959
X 11.70158 4.08554 2.64921 0.685831
X 2.41236 46.026129999999995 18.614630000000002 0.865385
X 9.712530000000001 46.51182 10.925640000000001 0.743635
X 9.47548 9.82271 6.91395 0.742144
X 5.880609999999999 47.34523 13.167 0.904351
X 15.208770000000001 16.82537 0.39493 0.659472
X 2.29103 3.6404300000000003 8.20207 0.756286
X 1.80612 19.20442 8.25357 0.717108
X 11.34601 13.82997 3.8201 0.684148
X 12.91247 2.82451 8.26149 0.693404
X 2.5756699999999997 14.60691 9.9917 0.687232
X 15.848949999999999 47.19634 0.6160100000000001 0.883617
X 10.443579999999999 8.93333 13.01343 0.690177
X 15.13573 7.74432 3.0681000000000003 0.747696
X 4.4621699999999995 19.70628 12.835939999999999 0.704283
X 4.39896 20.81447 4.62456 0.800629
X 1.74133 10.09655 14.876430000000001 0.668497
X 7.8224800000000005 3.00467 1.77708 0.597057
X 7.42692 3.3497700000000004 13.18341 0.735377
X 10.53021 11.536059999999999 10.9934 0.753714
X 0.30406 2.2578400000000003 13.87237 0.805645
X 7.88452 4.29918 8.622499999999999 0.680196
X 16.45293 22.35654 4.21852 0.739340
X 4.29246 17.70742 15.9318 0.639533
X 9.30555 5.092600000000001 12.02187 0.616898
X 5.463559999999999 6.10856 1.61832 0.655504
X 1.99626 6.33633 13.44803 0.643270
X 9.913450000000001 47.2806 2.48825 0.856241
X 11.0214 12.31339 13.545100000000001 0.682981
X 4.13947 1.19063 8.36521 0.886999
X 6.06822 1.38798 15.59369 0.795775
X 6.6904200000000005 15.62192 15.36189 0.734473
X -5.44003 8.4083 16.503030000000003 0.655857
X -0.93816 19.46841 8.47627 0.669220
X 8.210659999999999 5.43112 0.40437 0.633880
X 2.2409299999999996 16.73365 1.3220399999999999 0.662829
X 8.96575 9.07521 16.19358 0.645811
X 9.15202 0.6476700000000001 4.95602 0.817871
X 12.85015 0.80721 0.22776999999999997 0.785280
X 10.32226 11.73733 16.19085 0.637825
X 1.58883 13.09593 6.14616 0.680347
X 11.18221 1.70051 6.60818 0.647831
X 0.57728 4.81945 10.31691 0.615312
X 9.64857 16.01367 14.91733 0.669015
X -0.1374 4.82768 12.82937 0.606446
X 1.0094699999999999 13.96431 2.77754 0.718351
X 8.31713 10.62816 4.61639 0.664320
X 7.76052 12.436259999999999 16.09179 0.617940
X 0.25118 7.19395 8.78734 0.656831
X 4.81884 14.00155 5.3265899999999995 0.760520
X 3.50941 13.64851 1.66555 0.719103
X 0.90791 20.826030000000003 1.85048 0.703355
X 14.784500000000001 17.7292 3.1118099999999997 0.730261
X -1.51038 12.50033 13.73336 0.703140
X 14.087769999999999 13.98576 0.43681 0.673210
X 6.62138 17.23697 2.12527 0.695322
X 2.01044 19.24089 5.3672200000000005 0.688082
X -2.8237 1.0808900000000001 15.641680000000001 0.700791
X 9.97428 14.66569 10.17393 0.688594
X 1.47418 22.33495 7.7394099999999995 0.819511
X 0.90666 0.28098 3.0048999999999997 0.844526
X -0.18204 18.10897 1.6434499999999999 0.719047
X 13.94731 21.30419 2.9712199999999998 0.813094
X 0.42396 15.69895 12.40964 0.661962
X 10.888860000000001 13.70058 1.0900400000000001 0.656534
X -2.6223600000000005 20.72632 13.08384 0.713134
X 6.42319 17.99526 13.62573 0.761037
X 1.30191 11.94701 18.65381 0.686525
X 11.22352 19.96358 9.72777 0.791049
X 16.960919999999998 14.024669999999999 0.25844 0.670070
X 9.670530000000001 21.83373 16.296219999999998 0.753171
X 8.22533 10.477810000000002 9.28482 0.679323
X 1.20459 21.2648 12.172080000000001 0.743269
X 10.7548 21.501009999999997 11.98782 0.798291
X 4.66465 19.295569999999998 0.09426000000000001 0.741332
X -4.05849 13.35647 14.686950000000001 0.717936
X -4.61849 17.73837 15.40044 0.636926
X 5.82538 9.29153 4.64285 0.745745
X 2.74754 16.946 3.98965 0.678129
X 17.089760000000002 4.7679 0.00073 0.717631
X 10.42258 2.3070399999999998 0.9160400000000001 0.709038
X -4.70401 21.25957 15.52119 0.747870
X 5.2649 3.6806699999999997 10.3834 0.750605
X 5.72651 21.75116 10.183910000000001 0.733964
X -2.4138 21.68235 18.17983 0.774336
X -6.29505 11.3646 18.57059 0.609668
X 3.49339 11.59478 4.47561 0.720382
X 8.199 14.15662 0.7905099999999999 0.683499
X 6.2510900000000005 1.0900400000000001 10.723529999999998 0.818339
X 3.0669600000000004 47.22414 10.675049999999999 0.978927
X 1.8100800000000001 20.70439 14.69482 0.744423
X -1.7781500000000001 11.30789 16.20987 0.635117
X 6.2251900000000004 16.1218 11.10984 0.726140
X 8.417679999999999 19.23921 12.09751 0.717865
X 5.028449999999999 13.45186 14.06658 0.711592
X 4.2775 4.09458 5.3653200000000005 0.679472
X 3.88998 10.99585 17.460610000000003 0.729923
X 3.18736 11.38465 10.914140000000002 0.648710
X 7.7617899999999995 7.37742 11.82564 0.625001
X -2.67687 19.52827 16.38511 0.715338
X 6.37988 5.22449 4.12283 0.737804
X 7.792440000000001 23.187440000000002 1.8893499999999999 0.758999
X -2.07818 8.188130000000001 18.67478 0.648691
X 5.10402 22.04426 14.33341 0.757330
X -3.0281200000000004 14.47004 17.118100000000002 0.671437
X 11.120289999999999 20.183339999999998 2.66899 0.836252
X 8.48405 6.9429 8.71733 0.659880
X 0.22913 13.26487 9.70421 0.689283
X 10.76465 10.8205 1.39081 0.679885
X 8.30326 20.840740000000004 9.75558 0.750378
X 1.60187 1.39237 6.95497 0.646203
X 13.56108 22.30528 11.889909999999999 0.821237
X 6.76229 21.517970000000002 17.87809 0.681523
X 5.34876 19.17799 7.74779 0.690945
X 9.79051 7.125909999999999 6.32803 0.697348
X 14.16056 10.331760000000001 3.06567 0.676143
X 4.88654 11.431560000000001 2.17124 0.655235
X 12.24313 15.956600000000002 0.75861 0.716450
X 2.67309 3.08467 10.867579999999998 0.726997
X 6.21837 24.230489999999996 4.5735 0.973178
X 3.5280099999999996 23.787370000000003 5.19629 0.893429
X -1.48759 29.44785 4.9495000000000005 0.996857
X 2.02666 29.51675 4.65104 0.941912
X 4.92116 27.628279999999997 9.85126 0.981502
X 4.9667 27.96387 0.30948 0.973108
X -6.3479600000000005 25.63194 18.9531 0.960592
X 0.23262000000000002 25.67104 9.37291 0.987083
X 4.30382 29.005119999999998 7.44123 0.953646
X 5.20861 29.384769999999996 2.71398 1.006051
X 0.1484 24.36748 2.01381 0.818318
X -0.56484 24.149949999999997 7.13086 0.967926
X 5.7935 25.48587 2.1127000000000002 0.929380
X 3.57642 25.76538 7.20863 0.968937
X -0.77901 27.77016 7.200419999999999 1.015549
X 1.2099799999999998 27.6372 2.41411 0.989215
X 6.41536 26.376369999999998 6.465199999999999 0.998623
X 3.42295 26.007859999999997 3.43509 0.948781
X 16.66983 27.089599999999997 3.4777000000000005 0.966139
X 1.60799 26.987139999999997 5.763160000000001 0.894242
X 7.67755 30.284580000000002 1.69136 1.017114
X 1.59261 29.7314 8.007100000000001 0.959135
X 15.164850000000001 23.66228 8.18183 0.941677
X 2.49085 23.28987 0.78998 0.762255
X 4.6307 27.894009999999998 4.98454 0.943312
X 0.24076 25.09971 4.6511000000000005 0.959861
X -0.49584999999999996 23.83746 19.23329 0.812031
X 1.77143 29.06231 0.08563 1.001416
X 14.621500000000001 24.359579999999998 4.68982 0.900181
X 12.02209 24.3498 5.32137 0.922821
X 7.99437 29.748960000000004 4.91725 0.964330
X 10.64415 29.628739999999997 4.6599699999999995 0.992545
X 13.668050000000001 28.100540000000002 9.16282 0.895828
X 13.85864 28.05082 0.03633 0.958106
X 9.74667 25.63853 0.18866 0.992040
X 9.29707 25.86504 9.33711 0.924220
X 12.91771 29.669159999999998 6.94984 0.933897
X 14.3977 29.504510000000003 2.42525 1.001860
X 10.09684 24.484840000000002 2.6962399999999995 0.937398
X 8.79406 23.89531 7.57536 0.907549
X 14.92312 25.517 1.9348699999999999 0.902066
X 12.406559999999999 25.62334 7.66387 0.940353
X 8.12972 28.71568 7.37186 0.826394
X 10.34432 27.82271 2.5013400000000003 1.015211
X 14.89832 26.601309999999998 6.5822400000000005 0.977757
X 12.530470000000001 26.040670000000002 3.23791 0.927997
X 7.77578 26.88962 3.03647 0.918220
X 10.818859999999999 27.42654 6.58807 0.976422
X 17.16444 29.85852 1.67183 0.967326
X 10.68902 30.241419999999998 8.6149 0.989193
X 6.02871 23.697979999999998 8.30408 0.877958
X 12.64595 23.489019999999996 1.71399 0.900135
X 13.51868 28.212519999999998 4.64375 1.002129
X 9.08783 25.53622 5.14161 0.956732
X 8.58914 23.861919999999998 19.057360000000003 0.889874
X 10.77634 29.02115 0.12988 1.015451
X 6.26755 31.99828 5.039829999999999 0.966600
X 3.55159 31.783700000000003 5.600899999999999 0.941779
X -1.2817500000000002 37.26156 5.1593800000000005 1.027871
X 1.61145 36.89674 4.94438 1.038533
X 4.68177 35.57636 9.55232 0.926788
X 4.9528 35.48255 0.42261 1.017875
X 0.46742 33.36474 0.49958 0.994287
X 0.3368 33.065799999999996 9.55645 1.014404
X 4.25185 37.26633 7.481529999999999 0.987587
X 5.4935 37.21205 2.6478400000000004 1.016161
X 0.65527 31.621190000000002 2.79781 0.995993
X -0.25127 31.465999999999998 7.059769999999999 1.005606
X 5.92287 33.26351 2.5365599999999997 1.004528
X 3.74431 33.20179 7.87315 0.980814
X -0.90916 35.66209 7.34658 1.009004
X 1.46645 35.182289999999995 2.71822 0.995572
X 5.962769999999999 34.238640000000004 6.691279999999999 1.008506
X 3.29643 33.50791 3.49875 0.963520
X -1.09938 34.90977 3.47542 1.023012
X 1.63373 34.80727 6.76891 1.009541
X 7.97825 37.998419999999996 1.53775 0.965334
X 1.58938 37.480109999999996 8.29801 0.994845
X -2.60008 30.61146 8.247489999999999 0.984417
X 3.08523 30.88174 1.7442 1.009059
X 4.496 35.810810000000004 5.062410000000001 1.013626
X 0.27019000000000004 33.12916 5.0122599999999995 1.003428
X 6.01938 31.909399999999998 0.06795 1.000357
X 2.19972 36.52145 0.29104 0.972925
X 15.003919999999999 31.6156 4.71846 1.010546
X 12.269350000000001 32.07526 5.186929999999999 0.973787
X 7.80996 37.338809999999995 5.4076699999999995 1.015995
X 10.78595 37.07956 5.47457 0.962682
X 13.6796 35.10001 9.79419 1.025878
X 14.116489999999999 35.609880000000004 0.50387 0.980778
X 9.68457 33.586999999999996 0.28282 0.992177
X 8.615770000000001 33.26228 10.05641 1.026866
X 13.067150000000002 36.7947 7.582520000000001 1.003494
X 14.30428 37.19024 2.93817 0.995185
X 9.92416 32.07007 2.74127 1.004957
X 8.463840000000001 31.73581 7.74397 1.006567
X 15.19549 33.31169 2.07389 0.913529
X 12.69183 33.4097 7.554410000000001 0.990093
X 7.8674 35.88721 7.8444899999999995 0.955807
X 10.47145 35.80224 2.9767 0.997079
X 15.20073 33.64268 6.6110999999999995 0.988978
X 12.69101 34.01681 3.09826 0.884026
X 7.85937 34.91917 3.67724 1.035556
X 10.440059999999999 34.74993 6.83738 0.988671
X 16.80979 37.50602 1.8366799999999999 1.020298
X 10.812740000000002 37.61164 8.58162 0.997416
X 5.80435 31.02815 8.717270000000001 0.966530
X 12.16532 30.95453 1.7557800000000001 0.976168
X 13.6771 35.39209 5.09462 0.927935
X 9.0913 32.9703 5.28044 0.992409
X 9.275590000000001 31.61902 19.41208 0.920656
X 10.796159999999999 37.10273 0.5830599999999999 1.000474
X 6.086939999999999 39.4654 5.28373 1.006035
X 3.09328 39.24781 5.23277 1.021071
X -1.1053 45.21942 5.3093900000000005 0.934413
X 1.5978800000000002 45.01732 4.47205 0.845424
X 4.44342 43.04534 9.88434 1.004541
X 5.18131 42.87303 0.35777000000000003 0.964365
X 0.35727000000000003 40.75712 0.55557 1.021564
X -0.5240100000000001 41.11943 9.93076 0.889056
X 4.17354 44.75365 7.661090000000001 1.017660
X 4.91231 44.69486 2.5010900000000005 0.918527
X 0.6826 39.21857 2.88009 1.014150
X -0.25448 39.36139 7.5360000000000005 1.004990
X 5.905010000000001 40.87086 2.91632 1.002632
X 3.49838 40.94836 7.687659999999999 0.995891
X -0.7163700000000001 43.522400000000005 7.63741 0.965699
X 1.19491 43.12594 2.5374799999999995 0.985016
X 6.11749 41.6408 6.978339999999999 1.018378
X 3.50077 41.80024 3.35968 0.973448
X 16.5257 42.82601 4.0213 0.935959
X 1.7103599999999999 42.624959999999994 6.27238 0.955408
X 7.50369 45.66271999999999 2.2522 0.874122
X 1.7839099999999999 45.240629999999996 9.00876 0.946511
X -2.9165099999999997 38.81711 8.29533 1.001515
X 3.36557 38.74041 1.68811 0.997415
X 4.83288 43.403929999999995 5.24731 1.017990
X 0.23871 40.74701 5.04405 1.011651
X 6.39469 39.793409999999994 0.19071000000000002 1.009078
X 1.77256 44.581039999999994 0.22966 0.968684
X 15.37501 39.61786 5.27103 0.968120
X 12.631540000000001 39.2119 5.70906 0.986290
X 7.94125 44.41392999999999 5.6249 0.948733
X 10.569759999999999 44.9015 5.13344 1.044498
X 13.31765 43.335319999999996 9.90493 1.005664
X 13.981399999999999 43.34486 0.86314 1.025002
X 9.58688 41.15789 0.55798 1.039070
X 9.13844 41.19813 10.06326 1.038229
X 13.4126 44.84606 7.688899999999999 0.966089
X 14.47194 45.00349 3.1243700000000003 1.018938
X 9.72363 39.51759 3.1253599999999997 1.011326
X 8.95425 39.598209999999995 7.75073 1.016728
X 14.696610000000002 40.99681 2.9750900000000002 1.047178
X 12.49593 40.98212 7.87934 1.001023
X 8.298029999999999 43.140609999999995 7.96957 1.020742
X 10.39865 43.116890000000005 2.9920600000000004 1.015707
X 15.224340000000002 41.79941 7.21111 0.976747
X 12.29266 41.58489 3.97322 1.041478
X 7.8644 42.704930000000004 3.61897 1.009507
X 10.93107 42.85002 6.93605 1.011770
X 17.15539 45.268 2.1263 0.942357
X 10.794809999999998 45.70425 8.344859999999999 0.949812
X 6.26986 39.07647 9.09717 0.948408
X 12.30434 38.80983 2.2171 1.042458
X 13.63356 43.49807 5.30489 1.028685
X 9.46901 41.12139 5.26428 0.970975
X 15.437570000000001 39.536950000000004 0.74437 1.020040
X 10.851569999999999 44.11195 0.5109 0.982358
X 2.9278500000000003 23.898049999999998 14.51717 0.945267
X 0.20661 24.32504 14.485650000000001 0.906905
X -4.48813 29.58809 14.93575 1.001367
X -1.71292 29.463520000000003 15.022390000000001 0.959461
X 1.16607 28.19172 19.40741 0.961462
X 2.05568 27.78163 10.25798 0.942140
X -2.6380500000000002 25.9492 10.01301 0.980878
X -3.22154 25.585179999999998 18.84833 0.894515
X 0.5761700000000001 29.788990000000002 17.28768 0.986390
X 2.3096900000000002 29.237630000000003 12.641020000000001 0.993441
X -2.44726 24.309820000000002 12.270700000000001 0.962020
X -3.6804799999999998 24.03744 16.26438 0.825708
X 2.6831199999999997 25.35241 12.06746 0.929588
X 0.4058 25.44352 17.1546 0.968774
X -4.6420699999999995 27.82181 17.03329 0.927069
X -2.03754 28.27676 12.329410000000001 0.991399
X 3.04708 26.073230000000002 16.10802 0.980189
X 0.24455000000000002 26.600830000000002 12.81795 0.946522
X -4.48527 27.33698 13.17691 0.994113
X -1.61215 27.098580000000002 16.7444 0.878337
X 4.76244 29.89293 11.454930000000001 0.981071
X -2.45565 30.09096 18.05858 0.913540
X 11.916709999999998 23.260679999999997 17.45777 0.896977
X 0.12592 23.566250000000004 11.096919999999999 0.923626
X 1.19228 28.13036 15.08916 0.984547
X -2.68654 25.718429999999998 14.5207 0.887701
X 2.96918 24.21134 9.66407 0.942136
X -1.11026 28.82265 9.72765 0.985650
X 12.01913 23.66213 14.40602 0.900923
X 9.38516 23.86752 14.24309 0.898145
X 4.50619 29.75076 15.0985 0.995252
X 7.28951 29.521890000000003 14.50321 1.009591
X 9.8303 27.55099 19.141669999999998 0.983383
X 11.16334 27.63845 10.01831 0.919389
X 6.61712 25.6795 10.251850000000001 0.888688
X 5.870800000000001 25.74235 19.44881 0.978022
X 9.697989999999999 29.171809999999997 16.954430000000002 1.031027
X 11.17368 29.322119999999998 12.26362 1.021229
X 6.446269999999999 23.680979999999998 12.169430000000002 0.840571
X 5.31367 23.69346 17.25544 0.888238
X 12.149650000000001 25.32452 12.20685 0.918049
X 9.14163 25.19229 16.67662 0.974875
X 4.8780600000000005 27.952080000000002 17.219279999999998 1.019149
X 7.15529 28.02664 12.29751 1.008718
X 11.65341 25.99504 15.839859999999998 0.973591
X 9.37304 25.99082 12.565980000000001 0.938628
X 4.55558 27.161949999999997 13.644829999999999 0.969358
X 7.4531 27.05116 15.99361 1.000348
X 13.7075 30.14273 11.345279999999999 1.027770
X 7.299290000000001 30.03847 17.71929 1.005209
X 2.7435 23.200029999999998 18.167 0.920409
X 8.880139999999999 23.267799999999998 10.93446 0.884648
X 10.25735 27.73939 14.30537 0.950115
X 6.13295 25.042270000000002 14.626459999999998 0.982018
X 12.17575 23.87689 9.69868 0.917195
X 7.52534 29.38028 9.99184 0.980768
X 2.54836 31.722730000000002 14.91322 0.973919
X -0.19549 31.678150000000002 14.77943 1.011771
X -4.69872 37.051280000000006 14.846969999999999 1.040267
X -1.68587 36.947109999999995 14.28321 1.027698
X 7.72035 35.51367 0.30953 0.998116
X 2.11162 35.24386 10.01359 0.981718
X -2.46756 33.05918 9.8053 0.994885
X 3.06 33.19702 0.20802 1.020761
X 1.00996 36.75958 17.16442 0.950371
X 1.9020799999999998 36.94239 12.33218 0.996140
X -2.33025 31.83789 12.195450000000001 1.022419
X -4.09113 32.06464 17.10342 0.997892
X 2.76068 33.07295 12.30051 0.986323
X 0.23144 33.026650000000004 17.02891 0.992876
X -4.40146 35.4734 17.12474 1.017276
X -2.09956 35.42358 12.01575 1.050041
X 2.8181000000000003 34.14288 16.37612 1.015675
X -0.05298 33.73579 12.92921 1.013183
X 13.30369 34.79077 13.163929999999999 1.035369
X -1.8487600000000002 34.77979 16.16649 1.039796
X 4.70281 37.94497 11.98436 0.952832
X -1.4061299999999999 37.71521 18.06651 0.992408
X 11.64448 30.866690000000002 18.02758 1.020589
X 0.13875 30.747110000000003 11.45461 1.017551
X 1.0622099999999999 35.54951 14.63287 0.961040
X -3.2037199999999997 32.95599 14.536739999999998 1.052588
X 3.0275000000000003 31.49979 9.94124 0.970621
X -1.46486 36.73162 9.704509999999999 1.032141
X 11.762820000000001 31.36637 14.546650000000001 1.034694
X 9.18248 31.58847 14.846710000000002 1.008150
X 4.757350000000001 37.2712 15.279990000000002 1.009813
X 7.4694199999999995 37.04004 14.692 1.015845
X 10.11673 35.35746 19.35048 0.987214
X 10.9347 35.15923 10.06988 0.987588
X 5.74845 33.27347 10.465169999999999 0.984315
X 5.80555 33.62953 19.441580000000002 0.991686
X 9.4656 36.9596 17.2708 1.009638
X 11.001050000000001 36.75192 12.199349999999999 0.987705
X 6.2841000000000005 31.73166 12.603100000000001 1.022398
X 5.499359999999999 31.96857 16.968609999999998 1.000805
X 11.35483 33.136540000000004 12.44549 1.047853
X 9.17901 33.064209999999996 17.11821 1.014704
X 4.746639999999999 35.74096 17.59318 1.008698
X 6.7330000000000005 35.60241 12.51759 1.019440
X 11.51032 33.91645 16.13816 1.037966
X 8.87516 33.99059 13.4049 1.041053
X 4.1886600000000005 35.304190000000006 13.487119999999999 0.948665
X 7.059889999999999 34.75154 16.597839999999998 0.992125
X 13.78113 37.63078 11.190359999999998 1.003168
X 7.277 37.8294 18.323240000000002 1.043600
X 2.88573 31.28231 18.20917 1.034626
X 8.90321 30.959089999999996 11.47927 1.042192
X 10.44868 35.904630000000004 14.72505 1.025195
X 5.661300000000001 33.40146 14.556389999999999 0.952434
X 12.111529999999998 31.97654 9.9667 1.025381
X 7.74045 37.10515 10.437190000000001 0.951069
X 3.05276 39.44729 14.74805 0.992524
X 0.08517999999999999 39.17268 14.8187 1.007474
X -4.42077 44.60289 15.14043 0.971283
X -1.63144 44.455510000000004 14.47 0.928307
X 7.865450000000001 43.33708 0.52503 0.954958
X 1.59556 42.81087 10.22719 0.957794
X -3.1881700000000004 40.93956 10.04103 0.983334
X 3.04469 40.74088 0.0977 0.994802
X 0.8478399999999999 44.229659999999996 17.12653 0.904127
X 1.92897 44.468329999999995 12.370339999999999 0.930796
X -2.45721 39.30408 12.177150000000001 1.021379
X -3.94465 39.00772 17.29391 0.978525
X 3.09156 40.80006 12.04486 0.930069
X 0.33959999999999996 41.0787 17.3195 0.956313
X -4.16247 42.97815 17.37734 1.004667
X -1.73187 42.95181 12.272940000000002 0.906640
X 3.1006899999999997 41.44241 16.66478 0.986100
X 0.50433 41.248009999999994 13.06411 0.900990
X -4.46649 42.384370000000004 13.37975 1.020803
X -2.07888 42.13319 15.84486 0.857690
X 4.53296 45.24742 11.75714 1.003591
X -1.5101300000000002 45.12295 18.16891 0.910646
X -6.47205 38.519800000000004 18.59619 0.988974
X 0.02302 38.56807 11.139840000000001 1.007612
X 1.86242 43.06321 14.76637 0.957076
X -3.42193 40.07776 14.65269 0.940082
X 3.11069 39.097840000000005 9.87855 0.883955
X -1.4066899999999998 44.61128000000001 10.110570000000001 0.971803
X 11.639489999999999 39.21739 14.80513 1.029139
X 8.885819999999999 39.314659999999996 15.2393 1.035446
X 4.76102 44.60670999999999 15.21518 0.971843
X 7.45819 44.63037 15.34496 0.956846
X 16.78767 43.095470000000006 0.49244000000000004 1.020270
X 10.63626 43.52096 10.404029999999999 1.002670
X 6.5400100000000005 41.358579999999996 10.61202 0.989457
X 12.34946 41.03974 0.32043 1.057503
X 9.94657 44.845569999999995 17.68884 1.018553
X 11.0352 44.7476 12.84002 0.968611
X 6.7577 39.51285 12.72404 1.038283
X 5.27258 39.59743 17.45169 1.045041
X 11.414679999999999 40.8682 12.67074 1.028029
X 9.4064 40.383649999999996 17.65175 0.969737
X 5.05776 43.18177 17.60824 1.027321
X 7.15301 43.53288 12.82113 0.987247
X 11.91041 41.48142 16.46952 1.042404
X 8.97877 41.55392 13.66219 1.047075
X 4.74414 42.56121 13.31213 1.003214
X 7.53993 42.30459 16.93819 1.015857
X 13.46501 45.54793 11.770769999999999 0.947780
X 7.365469999999999 45.45961 18.53133 1.038282
X 2.68578 38.72195 18.278779999999998 1.015412
X 9.33751 38.75992 11.6372 1.006332
X 10.426590000000001 43.435249999999996 15.21796 1.043569
X 6.11691 40.88794 15.02931 1.011701
X 11.98556 39.5539 10.402640000000002 0.974677
X 7.64321 44.79223 10.35602 0.984034
