672
 1.813500 0.000000 0.000000 -0.026998 4.730310 0.000000 -0.659411 0.009827 1.945883
X 0.047322 0.853639 1.279587 0.634725
X 0.622161 0.088591 0.247702 0.767203
X 0.599455 0.709396 1.435224 0.663803
X 0.613549 4.666744 0.520645 0.986662
X 1.504917 1.978726 0.078180 0.669862
X 0.756737 0.486937 1.904871 0.738323
X 1.105541 0.602781 1.403578 0.619394
X 1.323500 0.562045 1.125457 0.633620
X -0.108810 1.563572 0.983654 0.662924
X 0.556425 1.330745 1.757630 0.675731
X -0.377215 4.666207 1.772010 0.761705
X -0.464557 0.607268 1.518741 0.635171
X 0.207372 0.965331 0.235688 0.727669
X 0.025345 1.597575 1.879749 0.694455
X 1.402545 0.355517 0.507638 0.690015
X 0.141534 1.821367 1.781691 0.621549
X 0.198699 0.921765 1.038509 0.660114
X 0.027732 0.843357 0.415310 0.639237
X 1.346412 0.346537 1.305072 0.650104
X 0.721057 1.295171 0.318632 0.660551
X 1.509984 1.293399 0.863012 0.658354
X 0.484758 2.241927 0.229260 0.760233
X 0.663705 1.842242 1.833852 0.743523
X 0.290467 4.645109 0.199582 0.862598
X -0.147917 0.418755 1.715050 0.615986
X 0.397941 0.408981 0.017362 0.621791
X 0.876465 0.164503 0.919767 0.738701
X 1.637694 1.202880 0.230695 0.669054
X 1.234076 4.707502 0.537730 0.959730
X 1.050141 0.753331 1.780740 0.682037
X 0.246446 1.733686 1.014130 0.752254
X -0.543499 0.404030 1.844457 0.640283
X 0.329757 4.689234 0.549808 0.919490
X 0.047239 1.872112 1.143476 0.660517
X 0.189962 0.523139 0.595943 0.709079
X 0.376099 0.636189 1.574901 0.684034
X 1.655518 0.415329 0.262508 0.682466
X 0.529405 0.529024 0.785873 0.687807
X 0.447618 0.316092 1.407996 0.849839
X 0.963620 0.401714 0.639325 0.701572
X 1.112988 0.301880 1.640252 0.655345
X -0.191844 0.244430 0.667631 0.665062
X 0.078361 0.566397 1.701569 0.627344
X -0.033320 0.160680 1.707537 0.748847
X 0.729723 1.950275 1.603297 0.741453
X 1.294712 1.014694 0.659100 0.693532
X -0.043717 0.566860 0.456148 0.682123
X 1.261017 0.010633 0.982460 0.787490
X 1.478782 0.475134 0.882041 0.671366
X -0.100814 1.555670 0.426948 0.701226
X 0.848249 4.696703 0.740820 0.923691
X 1.236439 4.614175 0.209975 0.983250
X 0.501121 4.651184 1.751969 0.858691
X 0.121585 0.197016 0.068406 0.739486
X -0.123928 0.876814 1.067725 0.587346
X 1.463439 1.496440 0.306592 0.702316
X 1.401572 0.540966 0.229245 0.756886
X -0.137856 0.283874 0.941944 0.604798
X 0.521681 1.404448 0.862363 0.696725
X -0.050940 1.643656 1.487479 0.601791
X 0.062562 0.132608 1.071337 0.806289
X 1.536285 4.719407 0.546135 0.894902
X 1.238209 0.790791 0.113562 0.679890
X -0.006765 4.722743 1.915973 0.789801
X 0.254300 1.270381 1.529340 0.649662
X 0.053072 2.200426 1.678972 0.828510
X 1.261318 0.613339 0.515913 0.671495
X 1.110463 1.905209 0.638271 0.810243
X 0.860242 1.505075 0.448533 0.657882
X -0.523752 2.078098 1.838582 0.666545
X 0.003016 0.226421 0.474533 0.628160
X 0.492257 1.550185 0.312487 0.662579
X 1.119091 0.845791 0.361089 0.714213
X -0.220110 0.995245 0.811172 0.697591
X 0.653046 0.912824 0.167014 0.602898
X 1.421798 1.544173 0.824769 0.691962
X 0.981609 1.871251 1.524766 0.663880
X 0.331017 1.194266 0.828973 0.668532
X 0.876873 0.091925 1.290638 0.714882
X 1.448600 0.802986 0.574536 0.679437
X 1.632608 1.005803 0.487153 0.672743
X 0.574199 1.158578 1.206517 0.661271
X 0.395045 0.176967 0.359991 0.770330
X 0.929487 1.781426 0.455431 0.715970
X 0.951334 1.724778 0.165030 0.678505
X 0.623141 0.172707 0.664102 0.868051
X 0.277147 1.756646 1.365016 0.697357
X 1.065857 1.205050 0.806770 0.753761
X 0.219111 0.369591 1.540034 0.732316
X 0.854658 1.310044 1.354697 0.685228
X 1.053424 1.634944 0.748203 0.631500
X 0.783218 0.872156 1.918560 0.709469
X 1.356610 1.145555 1.051300 0.721713
X 1.094865 0.506091 1.006291 0.646450
X 1.087516 1.893493 1.812852 0.664474
X 0.865014 1.401190 0.718569 0.667009
X 0.042550 1.150705 0.381275 0.671660
X 1.328622 2.200520 0.711413 0.842744
X 0.848113 2.049463 0.225657 0.751057
X 0.426793 0.832280 1.135308 0.622693
X 1.266143 1.573176 0.550722 0.688832
X 0.990980 0.855733 1.029422 0.726747
X 0.206751 0.632744 0.211789 0.674044
X -0.003281 1.905041 1.558358 0.674926
X 1.350746 1.975822 0.526403 0.808279
X 1.105695 0.568789 0.004555 0.702671
X -0.312038 1.481307 1.154884 0.692720
X -0.276601 4.705615 1.312314 0.811670
X 0.764664 1.625985 0.850186 0.668218
X 0.409402 1.622725 0.710604 0.661213
X 1.459489 1.277259 0.498094 0.708828
X 1.142062 2.147112 0.019392 0.812612
X -0.053651 1.815220 0.450404 0.670654
X 0.810476 2.153989 1.389047 0.767435
X 1.221298 1.483090 1.352719 0.685347
X 0.081543 1.461923 1.644058 0.646345
X -0.222903 0.134961 1.944133 0.717198
X 1.210795 1.761266 1.213479 0.697115
X 0.953538 0.536439 1.631585 0.675455
X 0.681849 0.699799 1.714402 0.684987
X 0.135979 2.198177 0.508539 0.754607
X -0.292312 1.639847 1.378103 0.636349
X 0.815554 0.789796 0.353679 0.718319
X 1.708124 0.995379 0.073197 0.684070
X -0.257220 1.657968 1.884393 0.693054
X -0.087428 1.693036 0.739484 0.687982
X 0.872638 1.588167 1.234206 0.656381
X 1.257638 1.400061 1.036812 0.705234
X 1.387202 2.041390 0.925127 0.702572
X 0.705027 0.430425 1.557484 0.692959
X -0.166300 2.240724 1.493747 0.739134
X 0.048284 1.051402 0.862537 0.660879
X 0.967803 0.085319 1.747659 0.713725
X 0.418968 2.175046 0.724811 0.803435
X 0.404043 1.816876 1.892718 0.709520
X 0.636247 0.858530 0.944472 0.663131
X 0.406571 1.520797 1.233103 0.724982
X -0.176707 2.014537 0.579549 0.665764
X 0.967151 1.760491 0.997896 0.662708
X 0.639028 1.724906 0.623088 0.691965
X 1.109500 0.226774 1.060681 0.615451
X 0.311112 1.926055 0.226845 0.680741
X 0.811569 2.241313 0.476333 0.842956
X -0.134343 1.276969 1.849142 0.664468
X 0.293790 2.126545 1.000048 0.626897
X -0.200270 0.639106 1.412661 0.613915
X -0.364157 1.028308 1.926569 0.638704
X -0.187625 2.163135 0.986357 0.810207
X 0.769284 1.293346 1.027438 0.737086
X 0.775878 2.065032 0.700472 0.734364
X 1.192628 1.971695 1.384440 0.768947
X 0.454885 0.574281 1.225995 0.665988
X 1.532747 0.139411 0.288476 0.853652
X 0.682532 1.221205 0.651832 0.691446
X -0.230701 1.829097 1.175279 0.676233
X 1.737656 0.715687 0.149264 0.720099
X 0.156447 1.594278 0.624534 0.640163
X 0.144671 1.260060 1.264764 0.679407
X 1.198277 1.621179 1.704675 0.643174
X 0.420942 2.041972 1.626416 0.739841
X 1.669491 2.210096 0.123505 0.801847
X 1.081405 2.209020 0.813985 0.930145
X -0.123240 1.361738 0.647704 0.681546
X 0.033866 2.025992 1.909489 0.790877
X 1.411411 0.786219 0.894315 0.652447
X 0.685718 1.927903 0.405237 0.729693
X 0.366918 1.538025 1.708773 0.756005
X 1.082286 2.173431 0.488140 0.908816
X 0.300747 4.666307 1.539098 0.905486
X 0.033104 4.665005 1.517634 0.893263
X 1.283805 1.312418 0.704214 0.689810
X 1.480341 1.715701 0.606841 0.695857
X -0.381412 0.353656 1.589427 0.629931
X 1.194144 1.744921 0.305953 0.769065
X -0.445759 1.081840 1.547484 0.585261
X 0.695719 0.700125 0.612967 0.768917
X 0.953727 0.564017 0.397869 0.713711
X 1.268262 0.165861 0.353596 0.785114
X -0.459669 0.698958 1.875642 0.656297
X 1.186398 0.651437 0.797307 0.710800
X 0.642732 1.014329 1.597767 0.633559
X 0.505929 1.002365 0.726079 0.684986
X 1.131036 0.191840 1.370706 0.707546
X 0.870708 0.934269 0.023657 0.651890
X -0.198262 0.613032 0.686394 0.663760
X 0.487968 1.842566 1.038082 0.705281
X 0.457640 0.964506 1.386161 0.696407
X -0.130244 0.818298 1.612182 0.609649
X 0.121590 0.848309 1.706900 0.620439
X 1.411231 1.763387 0.969933 0.659233
X -0.638612 4.701481 1.860528 0.819581
X 0.002236 4.641753 1.240663 0.893301
X -0.358007 0.785641 1.223983 0.599362
X 0.864159 1.544054 1.745498 0.643722
X 0.297750 0.090903 1.315223 0.910173
X -0.311016 0.192762 1.151674 0.702558
X 1.223212 4.705971 1.492942 0.834728
X 0.925588 4.669250 1.512260 0.812017
X 1.215607 0.962415 0.921309 0.712297
X 0.744803 0.221812 1.780804 0.695768
X 0.442757 0.828051 1.748128 0.676888
X 0.180342 0.367344 0.302002 0.716983
X 0.400892 0.794112 0.310128 0.701250
X 0.349243 0.723886 0.711526 0.704593
X 0.483550 0.408904 1.715553 0.727782
X 1.344972 1.137887 0.057598 0.713728
X 1.179560 1.105244 0.417438 0.657807
X 0.321059 0.173509 1.700901 0.819546
X -0.045315 4.703992 0.832312 0.813678
X 0.620430 4.635992 0.860467 0.970179
X 0.193966 0.951028 0.614651 0.684389
X 0.784262 0.298068 0.455297 0.665830
X 1.315796 1.017028 1.285977 0.644306
X -0.185018 1.142190 1.108008 0.666555
X -0.319506 4.676008 0.890835 0.886198
X 0.831610 1.048150 1.257407 0.693734
X -0.521545 1.402337 1.881365 0.642959
X 1.170158 0.408554 0.264921 0.685831
X 0.241236 4.602613 1.861463 0.865385
X 0.971253 4.651182 1.092564 0.743635
X 0.947548 0.982271 0.691395 0.742144
X 0.588061 4.734523 1.316700 0.904351
X 1.520877 1.682537 0.039493 0.659472
X 0.229103 0.364043 0.820207 0.756286
X 0.180612 1.920442 0.825357 0.717108
X 1.134601 1.382997 0.382010 0.684148
X 1.291247 0.282451 0.826149 0.693404
X 0.257567 1.460691 0.999170 0.687232
X 1.584895 4.719634 0.061601 0.883617
X 1.044358 0.893333 1.301343 0.690177
X 1.513573 0.774432 0.306810 0.747696
X 0.446217 1.970628 1.283594 0.704283
X 0.439896 2.081447 0.462456 0.800629
X 0.174133 1.009655 1.487643 0.668497
X 0.782248 0.300467 0.177708 0.597057
X 0.742692 0.334977 1.318341 0.735377
X 1.053021 1.153606 1.099340 0.753714
X 0.030406 0.225784 1.387237 0.805645
X 0.788452 0.429918 0.862250 0.680196
X 1.645293 2.235654 0.421852 0.739340
X 0.429246 1.770742 1.593180 0.639533
X 0.930555 0.509260 1.202187 0.616898
X 0.546356 0.610856 0.161832 0.655504
X 0.199626 0.633633 1.344803 0.643270
X 0.991345 4.728060 0.248825 0.856241
X 1.102140 1.231339 1.354510 0.682981
X 0.413947 0.119063 0.836521 0.886999
X 0.606822 0.138798 1.559369 0.795775
X 0.669042 1.562192 1.536189 0.734473
X -0.544003 0.840830 1.650303 0.655857
X -0.093816 1.946841 0.847627 0.669220
X 0.821066 0.543112 0.040437 0.633880
X 0.224093 1.673365 0.132204 0.662829
X 0.896575 0.907521 1.619358 0.645811
X 0.915202 0.064767 0.495602 0.817871
X 1.285015 0.080721 0.022777 0.785280
X 1.032226 1.173733 1.619085 0.637825
X 0.158883 1.309593 0.614616 0.680347
X 1.118221 0.170051 0.660818 0.647831
X 0.057728 0.481945 1.031691 0.615312
X 0.964857 1.601367 1.491733 0.669015
X -0.013740 0.482768 1.282937 0.606446
X 0.100947 1.396431 0.277754 0.718351
X 0.831713 1.062816 0.461639 0.664320
X 0.776052 1.243626 1.609179 0.617940
X 0.025118 0.719395 0.878734 0.656831
X 0.481884 1.400155 0.532659 0.760520
X 0.350941 1.364851 0.166555 0.719103
X 0.090791 2.082603 0.185048 0.703355
X 1.478450 1.772920 0.311181 0.730261
X -0.151038 1.250033 1.373336 0.703140
X 1.408777 1.398576 0.043681 0.673210
X 0.662138 1.723697 0.212527 0.695322
X 0.201044 1.924089 0.536722 0.688082
X -0.282370 0.108089 1.564168 0.700791
X 0.997428 1.466569 1.017393 0.688594
X 0.147418 2.233495 0.773941 0.819511
X 0.090666 0.028098 0.300490 0.844526
X -0.018204 1.810897 0.164345 0.719047
X 1.394731 2.130419 0.297122 0.813094
X 0.042396 1.569895 1.240964 0.661962
X 1.088886 1.370058 0.109004 0.656534
X -0.262236 2.072632 1.308384 0.713134
X 0.642319 1.799526 1.362573 0.761037
X 0.130191 1.194701 1.865381 0.686525
X 1.122352 1.996358 0.972777 0.791049
X 1.696092 1.402467 0.025844 0.670070
X 0.967053 2.183373 1.629622 0.753171
X 0.822533 1.047781 0.928482 0.679323
X 0.120459 2.126480 1.217208 0.743269
X 1.075480 2.150101 1.198782 0.798291
X 0.466465 1.929557 0.009426 0.741332
X -0.405849 1.335647 1.468695 0.717936
X -0.461849 1.773837 1.540044 0.636926
X 0.582538 0.929153 0.464285 0.745745
X 0.274754 1.694600 0.398965 0.678129
X 1.708976 0.476790 0.000073 0.717631
X 1.042258 0.230704 0.091604 0.709038
X -0.470401 2.125957 1.552119 0.747870
X 0.526490 0.368067 1.038340 0.750605
X 0.572651 2.175116 1.018391 0.733964
X -0.241380 2.168235 1.817983 0.774336
X -0.629505 1.136460 1.857059 0.609668
X 0.349339 1.159478 0.447561 0.720382
X 0.819900 1.415662 0.079051 0.683499
X 0.625109 0.109004 1.072353 0.818339
X 0.306696 4.722414 1.067505 0.978927
X 0.181008 2.070439 1.469482 0.744423
X -0.177815 1.130789 1.620987 0.635117
X 0.622519 1.612180 1.110984 0.726140
X 0.841768 1.923921 1.209751 0.717865
X 0.502845 1.345186 1.406658 0.711592
X 0.427750 0.409458 0.536532 0.679472
X 0.388998 1.099585 1.746061 0.729923
X 0.318736 1.138465 1.091414 0.648710
X 0.776179 0.737742 1.182564 0.625001
X -0.267687 1.952827 1.638511 0.715338
X 0.637988 0.522449 0.412283 0.737804
X 0.779244 2.318744 0.188935 0.758999
X -0.207818 0.818813 1.867478 0.648691
X 0.510402 2.204426 1.433341 0.757330
X -0.302812 1.447004 1.711810 0.671437
X 1.112029 2.018334 0.266899 0.836252
X 0.848405 0.694290 0.871733 0.659880
X 0.022913 1.326487 0.970421 0.689283
X 1.076465 1.082050 0.139081 0.679885
X 0.830326 2.084074 0.975558 0.750378
X 0.160187 0.139237 0.695497 0.646203
X 1.356108 2.230528 1.188991 0.821237
X 0.676229 2.151797 1.787809 0.681523
X 0.534876 1.917799 0.774779 0.690945
X 0.979051 0.712591 0.632803 0.697348
X 1.416056 1.033176 0.306567 0.676143
X 0.488654 1.143156 0.217124 0.655235
X 1.224313 1.595660 0.075861 0.716450
X 0.267309 0.308467 1.086758 0.726997
X 0.621837 2.423049 0.457350 0.973178
X 0.352801 2.378737 0.519629 0.893429
X -0.148759 2.944785 0.494950 0.996857
X 0.202666 2.951675 0.465104 0.941912
X 0.492116 2.762828 0.985126 0.981502
X 0.496670 2.796387 0.030948 0.973108
X -0.634796 2.563194 1.895310 0.960592
X 0.023262 2.567104 0.937291 0.987083
X 0.430382 2.900512 0.744123 0.953646
X 0.520861 2.938477 0.271398 1.006051
X 0.014840 2.436748 0.201381 0.818318
X -0.056484 2.414995 0.713086 0.967926
X 0.579350 2.548587 0.211270 0.929380
X 0.357642 2.576538 0.720863 0.968937
X -0.077901 2.777016 0.720042 1.015549
X 0.120998 2.763720 0.241411 0.989215
X 0.641536 2.637637 0.646520 0.998623
X 0.342295 2.600786 0.343509 0.948781
X 1.666983 2.708960 0.347770 0.966139
X 0.160799 2.698714 0.576316 0.894242
X 0.767755 3.028458 0.169136 1.017114
X 0.159261 2.973140 0.800710 0.959135
X 1.516485 2.366228 0.818183 0.941677
X 0.249085 2.328987 0.078998 0.762255
X 0.463070 2.789401 0.498454 0.943312
X 0.024076 2.509971 0.465110 0.959861
X -0.049585 2.383746 1.923329 0.812031
X 0.177143 2.906231 0.008563 1.001416
X 1.462150 2.435958 0.468982 0.900181
X 1.202209 2.434980 0.532137 0.922821
X 0.799437 2.974896 0.491725 0.964330
X 1.064415 2.962874 0.465997 0.992545
X 1.366805 2.810054 0.916282 0.895828
X 1.385864 2.805082 0.003633 0.958106
X 0.974667 2.563853 0.018866 0.992040
X 0.929707 2.586504 0.933711 0.924220
X 1.291771 2.966916 0.694984 0.933897
X 1.439770 2.950451 0.242525 1.001860
X 1.009684 2.448484 0.269624 0.937398
X 0.879406 2.389531 0.757536 0.907549
X 1.492312 2.551700 0.193487 0.902066
X 1.240656 2.562334 0.766387 0.940353
X 0.812972 2.871568 0.737186 0.826394
X 1.034432 2.782271 0.250134 1.015211
X 1.489832 2.660131 0.658224 0.977757
X 1.253047 2.604067 0.323791 0.927997
X 0.777578 2.688962 0.303647 0.918220
X 1.081886 2.742654 0.658807 0.976422
X 1.716444 2.985852 0.167183 0.967326
X 1.068902 3.024142 0.861490 0.989193
X 0.602871 2.369798 0.830408 0.877958
X 1.264595 2.348902 0.171399 0.900135
X 1.351868 2.821252 0.464375 1.002129
X 0.908783 2.553622 0.514161 0.956732
X 0.858914 2.386192 1.905736 0.889874
X 1.077634 2.902115 0.012988 1.015451
X 0.626755 3.199828 0.503983 0.966600
X 0.355159 3.178370 0.560090 0.941779
X -0.128175 3.726156 0.515938 1.027871
X 0.161145 3.689674 0.494438 1.038533
X 0.468177 3.557636 0.955232 0.926788
X 0.495280 3.548255 0.042261 1.017875
X 0.046742 3.336474 0.049958 0.994287
X 0.033680 3.306580 0.955645 1.014404
X 0.425185 3.726633 0.748153 0.987587
X 0.549350 3.721205 0.264784 1.016161
X 0.065527 3.162119 0.279781 0.995993
X -0.025127 3.146600 0.705977 1.005606
X 0.592287 3.326351 0.253656 1.004528
X 0.374431 3.320179 0.787315 0.980814
X -0.090916 3.566209 0.734658 1.009004
X 0.146645 3.518229 0.271822 0.995572
X 0.596277 3.423864 0.669128 1.008506
X 0.329643 3.350791 0.349875 0.963520
X -0.109938 3.490977 0.347542 1.023012
X 0.163373 3.480727 0.676891 1.009541
X 0.797825 3.799842 0.153775 0.965334
X 0.158938 3.748011 0.829801 0.994845
X -0.260008 3.061146 0.824749 0.984417
X 0.308523 3.088174 0.174420 1.009059
X 0.449600 3.581081 0.506241 1.013626
X 0.027019 3.312916 0.501226 1.003428
X 0.601938 3.190940 0.006795 1.000357
X 0.219972 3.652145 0.029104 0.972925
X 1.500392 3.161560 0.471846 1.010546
X 1.226935 3.207526 0.518693 0.973787
X 0.780996 3.733881 0.540767 1.015995
X 1.078595 3.707956 0.547457 0.962682
X 1.367960 3.510001 0.979419 1.025878
X 1.411649 3.560988 0.050387 0.980778
X 0.968457 3.358700 0.028282 0.992177
X 0.861577 3.326228 1.005641 1.026866
X 1.306715 3.679470 0.758252 1.003494
X 1.430428 3.719024 0.293817 0.995185
X 0.992416 3.207007 0.274127 1.004957
X 0.846384 3.173581 0.774397 1.006567
X 1.519549 3.331169 0.207389 0.913529
X 1.269183 3.340970 0.755441 0.990093
X 0.786740 3.588721 0.784449 0.955807
X 1.047145 3.580224 0.297670 0.997079
X 1.520073 3.364268 0.661110 0.988978
X 1.269101 3.401681 0.309826 0.884026
X 0.785937 3.491917 0.367724 1.035556
X 1.044006 3.474993 0.683738 0.988671
X 1.680979 3.750602 0.183668 1.020298
X 1.081274 3.761164 0.858162 0.997416
X 0.580435 3.102815 0.871727 0.966530
X 1.216532 3.095453 0.175578 0.976168
X 1.367710 3.539209 0.509462 0.927935
X 0.909130 3.297030 0.528044 0.992409
X 0.927559 3.161902 1.941208 0.920656
X 1.079616 3.710273 0.058306 1.000474
X 0.608694 3.946540 0.528373 1.006035
X 0.309328 3.924781 0.523277 1.021071
X -0.110530 4.521942 0.530939 0.934413
X 0.159788 4.501732 0.447205 0.845424
X 0.444342 4.304534 0.988434 1.004541
X 0.518131 4.287303 0.035777 0.964365
X 0.035727 4.075712 0.055557 1.021564
X -0.052401 4.111943 0.993076 0.889056
X 0.417354 4.475365 0.766109 1.017660
X 0.491231 4.469486 0.250109 0.918527
X 0.068260 3.921857 0.288009 1.014150
X -0.025448 3.936139 0.753600 1.004990
X 0.590501 4.087086 0.291632 1.002632
X 0.349838 4.094836 0.768766 0.995891
X -0.071637 4.352240 0.763741 0.965699
X 0.119491 4.312594 0.253748 0.985016
X 0.611749 4.164080 0.697834 1.018378
X 0.350077 4.180024 0.335968 0.973448
X 1.652570 4.282601 0.402130 0.935959
X 0.171036 4.262496 0.627238 0.955408
X 0.750369 4.566272 0.225220 0.874122
X 0.178391 4.524063 0.900876 0.946511
X -0.291651 3.881711 0.829533 1.001515
X 0.336557 3.874041 0.168811 0.997415
X 0.483288 4.340393 0.524731 1.017990
X 0.023871 4.074701 0.504405 1.011651
X 0.639469 3.979341 0.019071 1.009078
X 0.177256 4.458104 0.022966 0.968684
X 1.537501 3.961786 0.527103 0.968120
X 1.263154 3.921190 0.570906 0.986290
X 0.794125 4.441393 0.562490 0.948733
X 1.056976 4.490150 0.513344 1.044498
X 1.331765 4.333532 0.990493 1.005664
X 1.398140 4.334486 0.086314 1.025002
X 0.958688 4.115789 0.055798 1.039070
X 0.913844 4.119813 1.006326 1.038229
X 1.341260 4.484606 0.768890 0.966089
X 1.447194 4.500349 0.312437 1.018938
X 0.972363 3.951759 0.312536 1.011326
X 0.895425 3.959821 0.775073 1.016728
X 1.469661 4.099681 0.297509 1.047178
X 1.249593 4.098212 0.787934 1.001023
X 0.829803 4.314061 0.796957 1.020742
X 1.039865 4.311689 0.299206 1.015707
X 1.522434 4.179941 0.721111 0.976747
X 1.229266 4.158489 0.397322 1.041478
X 0.786440 4.270493 0.361897 1.009507
X 1.093107 4.285002 0.693605 1.011770
X 1.715539 4.526800 0.212630 0.942357
X 1.079481 4.570425 0.834486 0.949812
X 0.626986 3.907647 0.909717 0.948408
X 1.230434 3.880983 0.221710 1.042458
X 1.363356 4.349807 0.530489 1.028685
X 0.946901 4.112139 0.526428 0.970975
X 1.543757 3.953695 0.074437 1.020040
X 1.085157 4.411195 0.051090 0.982358
X 0.292785 2.389805 1.451717 0.945267
X 0.020661 2.432504 1.448565 0.906905
X -0.448813 2.958809 1.493575 1.001367
X -0.171292 2.946352 1.502239 0.959461
X 0.116607 2.819172 1.940741 0.961462
X 0.205568 2.778163 1.025798 0.942140
X -0.263805 2.594920 1.001301 0.980878
X -0.322154 2.558518 1.884833 0.894515
X 0.057617 2.978899 1.728768 0.986390
X 0.230969 2.923763 1.264102 0.993441
X -0.244726 2.430982 1.227070 0.962020
X -0.368048 2.403744 1.626438 0.825708
X 0.268312 2.535241 1.206746 0.929588
X 0.040580 2.544352 1.715460 0.968774
X -0.464207 2.782181 1.703329 0.927069
X -0.203754 2.827676 1.232941 0.991399
X 0.304708 2.607323 1.610802 0.980189
X 0.024455 2.660083 1.281795 0.946522
X -0.448527 2.733698 1.317691 0.994113
X -0.161215 2.709858 1.674440 0.878337
X 0.476244 2.989293 1.145493 0.981071
X -0.245565 3.009096 1.805858 0.913540
X 1.191671 2.326068 1.745777 0.896977
X 0.012592 2.356625 1.109692 0.923626
X 0.119228 2.813036 1.508916 0.984547
X -0.268654 2.571843 1.452070 0.887701
X 0.296918 2.421134 0.966407 0.942136
X -0.111026 2.882265 0.972765 0.985650
X 1.201913 2.366213 1.440602 0.900923
X 0.938516 2.386752 1.424309 0.898145
X 0.450619 2.975076 1.509850 0.995252
X 0.728951 2.952189 1.450321 1.009591
X 0.983030 2.755099 1.914167 0.983383
X 1.116334 2.763845 1.001831 0.919389
X 0.661712 2.567950 1.025185 0.888688
X 0.587080 2.574235 1.944881 0.978022
X 0.969799 2.917181 1.695443 1.031027
X 1.117368 2.932212 1.226362 1.021229
X 0.644627 2.368098 1.216943 0.840571
X 0.531367 2.369346 1.725544 0.888238
X 1.214965 2.532452 1.220685 0.918049
X 0.914163 2.519229 1.667662 0.974875
X 0.487806 2.795208 1.721928 1.019149
X 0.715529 2.802664 1.229751 1.008718
X 1.165341 2.599504 1.583986 0.973591
X 0.937304 2.599082 1.256598 0.938628
X 0.455558 2.716195 1.364483 0.969358
X 0.745310 2.705116 1.599361 1.000348
X 1.370750 3.014273 1.134528 1.027770
X 0.729929 3.003847 1.771929 1.005209
X 0.274350 2.320003 1.816700 0.920409
X 0.888014 2.326780 1.093446 0.884648
X 1.025735 2.773939 1.430537 0.950115
X 0.613295 2.504227 1.462646 0.982018
X 1.217575 2.387689 0.969868 0.917195
X 0.752534 2.938028 0.999184 0.980768
X 0.254836 3.172273 1.491322 0.973919
X -0.019549 3.167815 1.477943 1.011771
X -0.469872 3.705128 1.484697 1.040267
X -0.168587 3.694711 1.428321 1.027698
X 0.772035 3.551367 0.030953 0.998116
X 0.211162 3.524386 1.001359 0.981718
X -0.246756 3.305918 0.980530 0.994885
X 0.306000 3.319702 0.020802 1.020761
X 0.100996 3.675958 1.716442 0.950371
X 0.190208 3.694239 1.233218 0.996140
X -0.233025 3.183789 1.219545 1.022419
X -0.409113 3.206464 1.710342 0.997892
X 0.276068 3.307295 1.230051 0.986323
X 0.023144 3.302665 1.702891 0.992876
X -0.440146 3.547340 1.712474 1.017276
X -0.209956 3.542358 1.201575 1.050041
X 0.281810 3.414288 1.637612 1.015675
X -0.005298 3.373579 1.292921 1.013183
X 1.330369 3.479077 1.316393 1.035369
X -0.184876 3.477979 1.616649 1.039796
X 0.470281 3.794497 1.198436 0.952832
X -0.140613 3.771521 1.806651 0.992408
X 1.164448 3.086669 1.802758 1.020589
X 0.013875 3.074711 1.145461 1.017551
X 0.106221 3.554951 1.463287 0.961040
X -0.320372 3.295599 1.453674 1.052588
X 0.302750 3.149979 0.994124 0.970621
X -0.146486 3.673162 0.970451 1.032141
X 1.176282 3.136637 1.454665 1.034694
X 0.918248 3.158847 1.484671 1.008150
X 0.475735 3.727120 1.527999 1.009813
X 0.746942 3.704004 1.469200 1.015845
X 1.011673 3.535746 1.935048 0.987214
X 1.093470 3.515923 1.006988 0.987588
X 0.574845 3.327347 1.046517 0.984315
X 0.580555 3.362953 1.944158 0.991686
X 0.946560 3.695960 1.727080 1.009638
X 1.100105 3.675192 1.219935 0.987705
X 0.628410 3.173166 1.260310 1.022398
X 0.549936 3.196857 1.696861 1.000805
X 1.135483 3.313654 1.244549 1.047853
X 0.917901 3.306421 1.711821 1.014704
X 0.474664 3.574096 1.759318 1.008698
X 0.673300 3.560241 1.251759 1.019440
X 1.151032 3.391645 1.613816 1.037966
X 0.887516 3.399059 1.340490 1.041053
X 0.418866 3.530419 1.348712 0.948665
X 0.705989 3.475154 1.659784 0.992125
X 1.378113 3.763078 1.119036 1.003168
X 0.727700 3.782940 1.832324 1.043600
X 0.288573 3.128231 1.820917 1.034626
X 0.890321 3.095909 1.147927 1.042192
X 1.044868 3.590463 1.472505 1.025195
X 0.566130 3.340146 1.455639 0.952434
X 1.211153 3.197654 0.996670 1.025381
X 0.774045 3.710515 1.043719 0.951069
X 0.305276 3.944729 1.474805 0.992524
X 0.008518 3.917268 1.481870 1.007474
X -0.442077 4.460289 1.514043 0.971283
X -0.163144 4.445551 1.447000 0.928307
X 0.786545 4.333708 0.052503 0.954958
X 0.159556 4.281087 1.022719 0.957794
X -0.318817 4.093956 1.004103 0.983334
X 0.304469 4.074088 0.009770 0.994802
X 0.084784 4.422966 1.712653 0.904127
X 0.192897 4.446833 1.237034 0.930796
X -0.245721 3.930408 1.217715 1.021379
X -0.394465 3.900772 1.729391 0.978525
X 0.309156 4.080006 1.204486 0.930069
X 0.033960 4.107870 1.731950 0.956313
X -0.416247 4.297815 1.737734 1.004667
X -0.173187 4.295181 1.227294 0.906640
X 0.310069 4.144241 1.666478 0.986100
X 0.050433 4.124801 1.306411 0.900990
X -0.446649 4.238437 1.337975 1.020803
X -0.207888 4.213319 1.584486 0.857690
X 0.453296 4.524742 1.175714 1.003591
X -0.151013 4.512295 1.816891 0.910646
X -0.647205 3.851980 1.859619 0.988974
X 0.002302 3.856807 1.113984 1.007612
X 0.186242 4.306321 1.476637 0.957076
X -0.342193 4.007776 1.465269 0.940082
X 0.311069 3.909784 0.987855 0.883955
X -0.140669 4.461128 1.011057 0.971803
X 1.163949 3.921739 1.480513 1.029139
X 0.888582 3.931466 1.523930 1.035446
X 0.476102 4.460671 1.521518 0.971843
X 0.745819 4.463037 1.534496 0.956846
X 1.678767 4.309547 0.049244 1.020270
X 1.063626 4.352096 1.040403 1.002670
X 0.654001 4.135858 1.061202 0.989457
X 1.234946 4.103974 0.032043 1.057503
X 0.994657 4.484557 1.768884 1.018553
X 1.103520 4.474760 1.284002 0.968611
X 0.675770 3.951285 1.272404 1.038283
X 0.527258 3.959743 1.745169 1.045041
X 1.141468 4.086820 1.267074 1.028029
X 0.940640 4.038365 1.765175 0.969737
X 0.505776 4.318177 1.760824 1.027321
X 0.715301 4.353288 1.282113 0.987247
X 1.191041 4.148142 1.646952 1.042404
X 0.897877 4.155392 1.366219 1.047075
X 0.474414 4.256121 1.331213 1.003214
X 0.753993 4.230459 1.693819 1.015857
X 1.346501 4.554793 1.177077 0.947780
X 0.736547 4.545961 1.853133 1.038282
X 0.268578 3.872195 1.827878 1.015412
X 0.933751 3.875992 1.163720 1.006332
X 1.042659 4.343525 1.521796 1.043569
X 0.611691 4.088794 1.502931 1.011701
X 1.198556 3.955390 1.040264 0.974677
X 0.764321 4.479223 1.035602 0.984034
