864
 4.706252 0.000000 0.000000 -0.923855 2.161764 0.000000 -2.156338 0.295052 2.196132
X -9.86236 17.93929 4.54144 1.154356
X 0.24247000000000002 4.0735399999999995 1.81617 1.125660
X 5.58775 1.93193 0.43744 1.091176
X -10.52265 21.72549 4.14487 1.127638
X -3.18984 5.21195 1.73652 1.123726
X 2.88567 0.42958 2.47429 1.082028
X 2.44226 6.77604 0.83151 1.109671
X -8.16696 20.43923 3.72377 1.105192
X -13.418190000000001 22.29195 5.04974 1.107817
X 2.7068 2.8526800000000003 1.4427999999999999 1.126288
X -4.5286 19.35283 3.61926 1.082514
X -1.7977599999999998 2.79406 3.0747299999999997 1.107848
X -2.22807 17.97115 4.46297 1.037970
X 15.04574 2.45562 6.46016 0.822881
X 11.30264 14.838260000000002 12.685979999999999 0.924968
X -3.9846 20.16914 7.86766 0.909172
X 4.4981 4.9373499999999995 1.54976 1.102745
X 14.194230000000001 3.90967 3.47105 0.782604
X -10.05962 11.093900000000001 20.574119999999997 0.778905
X 14.48824 6.3471 14.11652 0.874130
X 3.48222 1.01303 5.1517800000000005 1.028816
X 1.30916 13.27113 9.26938 0.863859
X -9.08985 3.02626 19.42456 0.994639
X 9.65803 14.355599999999999 6.661390000000001 0.873799
X 5.36501 5.94482 16.02057 0.934139
X 6.1603699999999995 5.96607 3.56337 0.920703
X -5.22487 13.961120000000001 12.671 0.893479
X -1.6034000000000002 9.98765 19.75842 0.847482
X 2.05012 2.87663 12.77042 0.837006
X -3.41629 9.12812 12.11023 0.914786
X -7.17349 14.670760000000001 15.460529999999999 0.854038
X -15.29112 20.34416 20.14649 0.818830
X 8.5776 1.7295099999999999 5.44169 0.822726
X 2.37535 8.57587 20.140929999999997 0.857339
X 3.37899 21.45498 0.68045 0.831841
X 16.060209999999998 6.46668 1.5991 0.863570
X 10.13682 18.82799 11.995009999999999 0.930174
X 26.187749999999998 9.011949999999999 0.0902 0.964333
X 6.46839 8.84638 13.42611 0.868878
X 10.144459999999999 16.81203 10.00243 0.855131
X 7.07815 20.11288 7.13433 0.837975
X -2.3842499999999998 7.88843 15.88141 0.798842
X 1.74087 9.60641 11.608130000000001 0.903295
X 5.5621100000000006 12.77426 11.180769999999999 0.791375
X 21.48631 4.9945699999999995 0.21693 0.911143
X 25.959 1.86585 1.3471600000000001 0.865282
X 19.44702 18.92137 4.18161 1.073890
X 0.74806 14.631730000000001 20.7964 0.826721
X 21.33654 17.442230000000002 5.05514 1.099124
X 31.79923 3.7275799999999997 1.65292 1.111110
X 15.873809999999999 4.86079 21.944599999999998 1.098730
X 20.96322 21.234 3.94722 1.100264
X 28.03588 4.2724 1.4212 0.976080
X 25.013450000000002 21.580569999999998 2.45406 1.023072
X 33.37198 6.08997 0.69386 1.103283
X 23.44621 19.80124 3.88677 1.084565
X 18.04371 22.079990000000002 5.693009999999999 1.080420
X 34.37481 2.7177499999999997 1.6381000000000001 1.080129
X 27.27508 19.37613 4.07657 1.068093
X 29.881099999999996 2.17783 3.14711 1.071957
X 29.27968 17.56632 4.51826 1.096129
X 39.64241 3.8037199999999998 1.52201 1.102527
X 45.08614 2.40109 0.18051999999999999 1.127774
X 28.668779999999998 21.80071 3.81559 1.074281
X 35.72815 5.09537 1.6031400000000002 1.106145
X 42.44526 0.40280000000000005 2.3202800000000003 1.099732
X 41.55972 6.50969 0.72471 1.131877
X 31.09194 20.59504 3.8680199999999996 1.081448
X 34.883269999999996 0.81599 5.09172 1.101971
X 42.191140000000004 2.91215 1.2817100000000001 1.129464
X 34.84919 19.49474 3.8487500000000003 1.128845
X 37.37684 2.6678800000000003 2.7627 1.102522
X -3.7906299999999997 3.5290100000000004 4.93575 1.111077
X -2.68157 11.1708 1.4096 1.054034
X 2.7742 9.47059 0.38642999999999994 1.082517
X -4.34668 7.35651 3.89016 1.081894
X -6.41737 12.54377 1.4743600000000001 1.119123
X 0.35325 7.292 2.67568 1.069120
X -1.18865 13.60692 0.67309 1.043474
X -1.8393300000000001 6.13391 4.1077 1.079965
X -7.4223099999999995 7.9026 5.3103 1.100214
X -0.19251000000000001 9.953009999999999 1.8921299999999999 1.001374
X 1.68439 4.8975800000000005 3.98414 1.042673
X -4.63615 9.96289 2.69577 1.090849
X 2.30905 18.38991 13.3734 0.887293
X -4.0171600000000005 9.08219 20.579230000000003 0.889230
X -11.704550000000001 7.55053 20.167830000000002 0.919389
X 17.11167 18.39709 5.67426 1.008185
X 1.3402800000000001 12.1272 1.14214 0.946449
X 6.17146 2.6201799999999995 3.16575 1.011852
X 12.66692 8.283059999999999 2.6819900000000003 0.763272
X 1.12654 14.3296 3.28316 0.811993
X 1.06753 7.86824 5.430479999999999 0.977781
X 3.37734 10.01695 3.11118 0.944192
X 1.8851299999999998 12.172210000000002 21.3536 0.914048
X 7.582050000000001 9.02397 5.3916900000000005 0.790275
X -1.9961699999999998 11.9106 11.448920000000001 0.888462
X 2.16704 5.9679 10.23921 0.884834
X -9.921100000000001 11.23283 17.67967 0.910410
X 12.2556 14.53583 2.30322 0.920180
X 13.52596 4.96072 6.1009400000000005 0.804800
X 12.19253 19.12741 9.46629 0.878048
X 21.22731 2.20113 2.52714 0.856804
X -3.62252 17.98368 21.32612 0.827573
X -2.4365200000000002 12.920490000000001 14.257169999999999 0.850979
X 9.57793 18.38042 6.5818200000000004 0.899356
X -9.27905 19.06224 18.4209 0.958613
X 6.23043 6.61785 10.63459 0.860446
X -8.32151 17.04927 20.50122 0.938398
X 8.76687 7.61781 17.67508 0.912973
X -1.87508 5.36867 14.719949999999999 0.843127
X -6.03549 17.41254 16.54809 0.864145
X 12.394449999999999 21.95193 4.37252 0.942276
X 14.97928 13.968480000000001 2.19862 0.816624
X 1.39113 22.95893 10.83419 0.837773
X 10.166699999999999 9.51487 6.173920000000001 0.815181
X 7.8625 11.693560000000002 7.76405 0.793507
X 1.97879 17.77758 21.198009999999996 0.798351
X 25.61844 4.52633 3.73766 0.993789
X 7.86146 22.14247 5.217239999999999 0.830828
X 27.85714 2.98369 4.975029999999999 1.071863
X 28.883380000000002 11.09458 1.84681 1.116873
X 12.6773 11.755960000000002 21.873849999999997 1.097507
X 27.18425 6.721629999999999 3.68077 1.014275
X 25.08974 11.898280000000002 1.66392 1.068421
X 31.643620000000002 7.27097 2.6853100000000003 1.139637
X 30.336910000000003 13.444719999999998 0.83043 1.100438
X 29.74612 5.508699999999999 3.4250399999999996 1.112949
X 23.95118 7.744299999999999 5.14526 1.044910
X 31.29811 9.927620000000001 1.3536400000000002 1.123545
X 33.24014 4.88546 3.85687 1.140793
X 26.83024 9.3874 2.84202 1.026266
X 35.53037 3.6544 4.60926 1.124791
X 36.316359999999996 11.08962 1.54984 1.104765
X 20.31859 12.3597 21.92517 1.117016
X 34.92975 7.32639 4.01635 1.142906
X 32.909639999999996 12.25792 1.50196 1.123681
X 39.64639 7.61529 2.49851 1.110559
X 38.09308 13.60106 0.87575 1.108734
X 37.51667 6.067019999999999 3.74646 1.129079
X 31.965880000000002 7.77142 5.275689999999999 1.137857
X 38.84477 10.09535 1.47396 1.109928
X 41.13709 4.97059 3.84286 1.125597
X 34.168440000000004 9.56381 2.5407800000000003 1.119742
X -6.92476 10.535499999999999 4.79377 1.097916
X -5.82278 18.19518 1.31362 1.043942
X -0.37197 16.52514 0.009770000000000001 1.106704
X -7.56246 14.60806 3.8957 1.108785
X -9.43179 19.63032 1.5253800000000002 1.127931
X -3.0319800000000003 14.77342 2.5574000000000003 1.084286
X -4.20538 20.91948 0.8487899999999999 1.100098
X -5.04105 13.359110000000001 3.69159 1.104061
X -10.12896 15.1101 5.253 1.132551
X -3.14729 17.39909 1.37054 1.092685
X -0.87365 12.4125 4.14649 0.979125
X -7.72686 17.214689999999997 2.88872 1.104214
X 6.60562 1.70545 10.32297 0.855258
X 1.11463 13.53134 6.19185 0.833281
X -11.82141 16.97081 20.665779999999998 0.909438
X 0.82203 10.56194 5.574750000000001 0.827036
X -1.7073800000000001 19.75196 1.3618 1.101942
X 3.6463400000000004 13.653649999999999 7.5537399999999995 0.815177
X 0.25256 2.23621 9.829550000000001 0.983820
X 14.920869999999999 10.096989999999998 5.79438 0.814774
X -2.61416 15.28156 5.195880000000001 1.061389
X -11.24241 4.3082199999999995 21.073659999999997 0.939675
X 14.10744 7.42374 4.93266 0.799027
X -0.09284 17.066300000000002 3.1458199999999996 1.022158
X -0.49944 19.40446 20.9429 0.862472
X 10.35098 13.9282 10.1386 0.864497
X 7.25021 12.53238 3.0462499999999997 0.801497
X 5.93891 18.90915 9.67167 0.835584
X 1.5570400000000002 18.68859 1.49654 0.882664
X 1.35915 19.73696 18.65643 0.827837
X 7.92088 7.8030100000000004 2.7857900000000004 0.797038
X -6.74902 20.961199999999998 19.80399 0.892451
X -5.2578700000000005 20.36188 15.3303 0.868504
X 1.61084 19.17838 4.90008 0.870328
X 7.88806 13.709229999999998 17.04114 0.864218
X -4.15094 23.87136 19.03193 0.854060
X 4.24882 14.545380000000002 19.56669 0.827343
X -2.6730199999999997 17.73801 7.517390000000001 0.844693
X 11.676770000000001 16.43317 7.62283 0.881482
X -0.38385 13.69842 15.82497 0.864488
X -7.33427 9.03837 19.46157 0.825644
X -1.9891 20.53092 13.51153 0.849824
X -6.28125 15.516760000000001 18.75999 0.875219
X -1.38065 16.65712 20.14495 0.809166
X -8.59409 23.269820000000003 17.60014 0.870558
X 18.06973 8.52196 0.10895 0.911192
X 16.84723 12.130030000000001 1.06741 0.848670
X 10.55948 11.71996 7.84605 0.779721
X 25.02558 10.36626 4.78899 1.065028
X 25.51359 17.92691 1.85393 1.041097
X 31.268099999999997 16.17105 0.20321 1.102077
X 23.86833 13.88211 4.01146 1.095888
X 22.108729999999998 18.80374 1.7534399999999999 1.023827
X 28.372130000000002 14.333549999999999 2.57273 1.094539
X 27.47858 20.73657 1.09265 1.098748
X 26.39782 13.06501 4.08019 1.092894
X 21.24558 14.64546 5.31137 1.050946
X 28.20308 16.881980000000002 1.57611 1.102266
X 30.2273 11.945030000000001 4.20073 1.123701
X 23.22323 16.53163 3.1650099999999997 1.040524
X 32.510940000000005 10.33868 4.76997 1.130501
X 33.43466 18.38594 1.71967 1.105890
X 38.80963 16.458280000000002 0.22870000000000001 1.126755
X 31.73136 14.312570000000001 4.07508 1.127366
X 29.7081 19.34727 1.66099 1.118760
X 36.49846 14.82648 2.52856 1.139735
X 35.58063 21.40675 0.7466 1.079575
X 34.21506 13.16128 3.7756299999999996 1.119114
X 28.658549999999998 14.93741 5.42296 1.127105
X 36.03055 17.23582 1.0567600000000001 1.122701
X 37.848079999999996 12.37809 3.90115 1.120477
X 31.549809999999997 16.88271 2.84916 1.080815
X -12.58564 13.35477 10.06646 1.106148
X -12.09853 20.84397 6.943510000000001 1.110127
X -6.48095 18.87049 5.5581499999999995 1.123785
X -13.463080000000001 16.92246 9.63592 1.114065
X 31.11148 21.94724 6.954219999999999 1.104552
X -8.9584 17.03222 7.780749999999999 1.133309
X -0.7945599999999999 1.7807799999999998 6.2514899999999995 1.104366
X -11.003730000000001 15.78257 8.93428 1.118544
X -16.52984 17.77264 10.50173 1.122548
X -9.387640000000001 19.51445 6.7320899999999995 1.133274
X -7.8956 14.623489999999999 9.36555 1.085725
X -14.026449999999999 19.36038 8.28321 1.122137
X -5.35576 13.401309999999999 9.89743 1.018016
X 15.41865 17.75699 1.56892 0.866456
X 1.8534000000000002 13.674299999999999 18.37596 0.836153
X -5.94874 16.554949999999998 9.34808 1.050350
X -7.6546400000000006 21.90139 7.18675 1.092086
X 13.20929 4.8212 8.88802 0.790012
X 15.81386 5.29462 8.73443 0.790157
X 11.60435 4.63067 13.747720000000001 0.823309
X -8.5182 17.37804 10.78893 1.063229
X 15.81485 9.5721 1.52101 0.863029
X -14.78406 17.65681 18.97267 0.983345
X -6.5022899999999995 19.11939 8.30665 1.077683
X 19.47835 11.57973 1.53011 0.859530
X 23.44793 3.22689 1.12599 0.860498
X -6.19462 6.728899999999999 20.160650000000004 0.829682
X -3.3008300000000004 2.38366 17.60213 0.802291
X -12.331710000000001 22.11373 13.249820000000001 0.861610
X 20.73164 13.819280000000001 2.9190500000000004 0.956029
X 7.3148 17.07571 1.2778200000000002 0.916356
X 22.61386 1.96662 6.28674 1.035560
X -4.32803 14.453750000000001 16.02765 0.836745
X 13.554580000000001 11.79381 12.10819 0.921402
X -4.24751 9.53725 14.99448 0.793171
X 2.23775 5.424799999999999 16.789279999999998 0.800000
X 3.5386800000000003 11.7729 5.1958 0.809049
X 23.97106 8.58053 2.17728 0.911873
X 5.66504 18.67813 12.32292 0.781250
X 22.44857 12.74796 1.24777 0.902087
X 18.41088 5.4347900000000005 11.395 0.814151
X -12.107410000000002 17.266 17.83579 0.863061
X 7.45409 18.32946 4.35278 0.845631
X -0.00955 9.08273 14.951730000000001 0.819936
X 5.43258 16.43216 13.55912 0.776671
X 14.45736 16.81858 8.1037 1.032238
X 12.44521 17.56383 2.61965 0.910155
X 3.49791 15.078879999999998 2.25397 0.742195
X 18.52758 13.14206 10.60486 1.069779
X 19.51527 20.68697 7.58606 1.121955
X 25.11195 18.35808 5.4605999999999995 1.054111
X 17.61043 17.00906 9.54207 1.101326
X 15.541590000000001 21.802709999999998 6.78624 1.056030
X 22.388669999999998 17.00304 8.12608 1.117863
X 30.474359999999997 1.4435600000000002 6.1274 1.103572
X 20.223429999999997 16.0106 9.38115 1.065702
X 14.79799 17.51516 10.75703 1.069373
X 21.937509999999996 19.4896 6.94225 1.136227
X 24.16109 14.35383 9.6915 1.088552
X 16.90747 19.36204 8.2786 1.084900
X 26.56427 13.091759999999999 10.23625 1.134469
X 27.17167 20.65972 6.84107 1.056994
X 32.779579999999996 18.82824 5.42276 1.117092
X 25.336889999999997 16.76914 9.22658 1.075241
X 23.60711 21.771340000000002 6.93722 1.123029
X 29.94138 17.109479999999998 7.900939999999999 1.085719
X 38.01198 1.8690699999999998 6.21572 1.099838
X 27.95554 15.77389 9.08788 1.120139
X 22.69129 17.725839999999998 11.052789999999998 1.110522
X 29.829430000000002 19.63377 6.78137 1.100271
X 31.99446 14.639880000000002 9.36643 1.125269
X 25.063409999999998 19.3569 8.148800000000001 1.117019
X -15.9197 20.564619999999998 10.109729999999999 1.111939
X -5.61659 6.75799 7.3348 1.107616
X -0.52974 4.56934 5.8834 1.086925
X -7.441680000000001 2.5862499999999997 9.50566 1.118322
X -9.37032 7.41789 7.023000000000001 1.121861
X -2.62046 2.6766699999999997 8.14922 1.099174
X -3.63794 8.84892 6.154190000000001 1.081665
X -14.21809 22.804090000000002 8.83669 1.118171
X -10.39957 3.37774 11.00665 1.103447
X -3.42848 5.18629 7.331530000000001 1.071643
X -10.38031 21.438299999999998 9.07408 0.991986
X -7.6288599999999995 5.149559999999999 8.22786 1.098582
X -8.33417 20.08238 10.26015 1.063496
X 0.7492 4.83165 20.861580000000004 0.837266
X 9.69668 18.41877 2.47077 0.941335
X -11.952359999999999 23.56828 21.38384 0.874270
X -1.20449 7.584499999999999 7.0357899999999995 1.068347
X 4.1947 13.74665 16.24631 0.790158
X 10.326640000000001 7.08856 1.65774 0.721241
X -12.51754 10.20975 19.587049999999998 0.983570
X -2.5122100000000005 3.3492699999999997 10.88859 0.953345
X -2.09781 20.64553 9.83892 0.851877
X 23.40615 4.5557300000000005 5.4378899999999994 1.040248
X 0.12309 4.95362 8.70834 1.008333
X -3.5870200000000003 5.43053 20.708669999999998 0.937070
X 8.05763 10.35127 17.69281 0.935721
X 13.0997 22.03694 9.03683 1.021884
X -8.77796 16.74867 17.10977 0.931581
X 11.94229 2.3278499999999998 4.34793 0.810559
X 6.8323 9.53982 9.14428 0.868575
X 7.64231 4.2280299999999995 14.091990000000001 0.935491
X 12.66188 1.99464 8.85895 0.805301
X -6.9596100000000005 23.91198 19.72663 0.890885
X 4.481260000000001 6.45096 8.47719 0.825920
X 5.61149 9.41531 21.73057 0.810255
X 8.623380000000001 4.33634 4.27134 0.812453
X 12.10747 8.01948 7.25177 0.841825
X 9.67954 4.323 17.86168 0.805201
X 4.3690299999999995 10.43309 10.12446 0.868948
X 4.31114 15.45419 5.41659 0.843196
X 10.146180000000001 16.37494 4.1245199999999995 0.953122
X 13.88535 21.03679 0.631 0.818933
X 14.713799999999999 20.5064 3.36973 0.858156
X -3.40564 7.50721 18.52722 0.777646
X 11.374200000000002 10.51158 3.9262 0.784620
X 20.60669 16.180419999999998 1.71458 0.955892
X 18.14287 16.97414 2.6274599999999997 0.905888
X 10.867629999999998 9.35013 16.464589999999998 0.983605
X 15.01683 20.25274 10.312809999999999 1.066849
X 25.76791 6.27059 6.72949 1.029042
X 31.142059999999997 4.30022 5.6493400000000005 1.119663
X 24.366500000000002 2.48372 9.32153 1.063407
X 21.91335 7.53483 7.067 1.054970
X 28.776000000000003 2.40931 8.28243 1.132453
X 27.410800000000002 8.55063 6.524710000000001 1.083195
X 17.175 22.334200000000003 9.37123 1.071166
X 21.258249999999997 3.20709 11.065769999999999 1.058036
X 28.141600000000004 4.94348 7.1333400000000005 1.073278
X 20.97726 21.450999999999997 9.7768 1.118769
X 23.52767 5.118780000000001 8.18882 1.120221
X 23.36287 20.39717 10.222 1.133946
X 33.20626 6.56476 7.34182 1.137533
X 38.96468 4.55429 5.56799 1.128439
X 31.745160000000002 2.19605 9.77784 1.123382
X 29.82262 7.32048 7.0073799999999995 1.120363
X 36.19691 3.09167 8.0783 1.095174
X 35.36923 8.657129999999999 6.25938 1.118448
X 34.28771 1.3792499999999999 9.18831 1.111693
X 28.94307 3.1764599999999996 10.90156 1.135803
X 35.790130000000005 5.41112 6.65982 1.132154
X 28.5948 22.07796 9.30918 1.116945
X 31.21362 4.79514 8.55327 1.124139
X -10.01727 6.24488 10.249559999999999 1.105415
X -9.18097 13.565259999999999 7.2132700000000005 1.123207
X -3.43405 11.63475 5.26512 1.075829
X -10.384329999999999 9.94434 9.67817 1.109053
X 34.618159999999996 14.63526 6.602679999999999 1.119776
X -5.9206199999999995 9.59432 7.92751 1.080107
X -6.9094500000000005 16.24515 6.09009 1.121704
X -7.86794 8.35829 9.255700000000001 1.097747
X -13.16075 10.54482 10.505379999999999 1.106457
X -6.462630000000001 12.18092 6.91695 1.095350
X -4.024710000000001 7.5441199999999995 9.52704 1.103172
X -11.3323 11.976199999999999 7.88239 1.091724
X -5.76588 11.650910000000001 14.16477 0.860784
X 2.10641 17.89182 10.660559999999998 0.864136
X 16.76867 6.47611 4.36672 0.823325
X 5.1084700000000005 8.080169999999999 6.36139 0.869464
X -4.79347 14.67671 7.035559999999999 1.123118
X 3.38962 4.09496 7.412520000000001 0.806724
X 10.87339 6.10891 4.36039 0.810608
X 17.424409999999998 9.245090000000001 8.42407 0.911000
X -5.40397 10.66008 10.54724 1.055673
X 0.40597 5.7649799999999995 12.4068 0.877039
X 6.35856 11.472999999999999 5.28944 0.755632
X -3.68135 12.15072 7.90231 1.015923
X 5.68603 22.786080000000002 11.1863 0.829275
X 5.75098 4.51402 12.16362 0.894942
X -3.29224 22.38897 6.48169 0.855509
X 10.50271 8.16668 10.539570000000001 0.867310
X 17.01422 10.153129999999999 3.91221 0.881142
X -0.8018599999999999 19.940469999999998 6.0334 0.888224
X 22.50683 11.37117 4.03867 1.037939
X 7.550179999999999 4.9744399999999995 6.91671 0.804685
X 13.99527 2.51377 16.71784 0.982455
X 9.31536 14.51497 2.34666 0.936856
X 12.479759999999999 7.72143 13.024389999999999 0.845677
X 4.65522 21.10923 17.55915 0.950200
X 15.848310000000001 4.89916 11.75582 0.848281
X 21.370469999999997 9.42928 2.23794 0.869533
X 0.49751999999999996 20.729989999999997 12.21276 0.850759
X 5.02771 17.07922 7.861510000000001 0.830262
X 4.37704 8.27256 11.75049 0.872232
X 11.91476 19.08257 5.1223399999999994 0.933810
X 6.98357 16.02206 10.161439999999999 0.812308
X -2.1720900000000003 15.68299 17.14276 0.785549
X 4.45107 8.27198 17.24153 0.817175
X -0.90528 22.19776 20.61574 0.803585
X 19.36994 7.36445 9.57095 0.989236
X 8.79247 3.0916500000000005 9.913920000000001 0.831629
X 21.86508 5.88181 10.238769999999999 1.124723
X 22.470439999999996 13.436509999999998 7.56735 1.111196
X 27.87411 11.211210000000001 5.75403 1.128246
X 20.86649 9.58756 9.50484 1.094142
X 18.974230000000002 14.5601 7.0257499999999995 1.035550
X 25.682100000000002 9.89206 8.07087 1.125693
X 24.2185 15.77328 6.1156 1.122954
X 23.52798 8.87614 9.25425 1.057310
X 17.60015 10.47539 10.91984 1.016370
X 25.0614 12.3191 6.96257 1.135234
X 27.15822 7.43236 9.34588 1.126231
X 20.34399 12.053529999999999 8.46295 1.086792
X 29.179859999999998 5.83746 10.315460000000002 1.113722
X 30.523139999999998 13.49981 7.17187 1.116475
X 35.622859999999996 11.32509 5.233409999999999 1.120175
X 28.769930000000002 9.79116 9.58449 1.143580
X 26.64907 14.384049999999998 7.0789 1.126542
X 33.24118 9.88735 7.86913 1.127788
X 32.0483 16.11244 6.1902 1.128431
X 31.21718 8.4268 9.12412 1.135433
X 26.07999 10.40813 10.86541 1.143271
X 33.00186 12.34542 6.63715 1.115276
X 34.71626 7.65952 9.58584 1.115191
X 28.409270000000003 12.329989999999999 8.333120000000001 1.125411
X -15.992189999999999 8.399370000000001 15.72286 1.110924
X -15.233460000000001 16.12955 12.19904 1.061581
X -9.86319 14.290389999999999 11.29506 1.111274
X -16.41129 12.48272 15.040569999999999 1.095833
X 28.20545 17.393909999999998 12.28008 1.124735
X -12.079709999999999 12.428920000000002 13.54816 1.107629
X -13.347180000000002 18.74764 11.848099999999999 1.075927
X -14.0563 10.79592 14.53257 1.114441
X -19.54485 13.21778 16.16434 1.115238
X -12.6333 15.07569 12.32691 1.103972
X -10.36824 9.78218 15.07742 1.059029
X -17.295849999999998 14.857050000000001 13.7025 1.110083
X 8.115369999999999 9.61127 11.39652 0.875565
X 9.77898 10.03984 13.98236 0.932114
X 3.671 10.07792 7.48999 0.861389
X 3.72663 4.79058 13.75639 0.917177
X -10.68988 17.41956 12.56386 1.073256
X 10.63702 1.36062 1.92685 0.777495
X 3.2953799999999998 15.67048 9.59187 0.908234
X 5.88846 21.604619999999997 14.641090000000002 0.827590
X -11.92449 12.830449999999999 16.54304 1.010321
X -0.0069 8.029819999999999 18.779030000000002 0.808715
X 1.3386999999999998 19.93809 15.9618 0.873644
X -9.56587 14.585619999999999 14.15026 1.041562
X -1.8665699999999998 16.8488 13.44586 0.822140
X -0.22360999999999998 4.1507 16.7178 0.815895
X 2.27084 15.783830000000002 14.095139999999999 0.838970
X -4.9263200000000005 17.87107 11.78133 0.904850
X 11.46624 12.34763 13.74342 0.995295
X 17.83332 21.33634 2.96837 1.009006
X 16.4037 14.52634 9.3203 1.020127
X 9.64804 2.6684900000000003 13.1698 0.822980
X 18.73173 1.0257399999999999 1.4505599999999998 0.854018
X -2.7742099999999996 23.5041 15.080860000000001 0.883188
X 3.3574599999999997 17.213449999999998 18.59615 0.793117
X -6.982660000000001 4.68442 18.54601 0.883882
X 7.638730000000001 16.324469999999998 6.46161 0.833764
X 6.20951 8.91941 19.16798 0.824904
X 14.192409999999999 14.086030000000001 11.036919999999999 0.994849
X 17.992649999999998 12.47822 4.95175 0.887300
X 5.252559999999999 11.08986 1.2932199999999998 0.963315
X 1.11754 16.2316 5.672420000000001 0.939687
X 8.42135 7.376 8.42735 0.805214
X -3.2138299999999997 15.394829999999999 9.194320000000001 0.971379
X -7.491750000000001 12.69042 17.36485 0.884624
X -2.7010699999999996 14.669509999999999 11.78313 0.825394
X 13.135010000000001 9.84574 14.838420000000001 1.050764
X 3.4981099999999996 17.58206 3.7938 0.841966
X 15.64422 8.78186 15.86028 1.073083
X 16.20109 16.185750000000002 12.803500000000001 1.118501
X 21.50786 14.10529 11.40145 1.113801
X 14.44584 12.395879999999998 15.291429999999998 1.104792
X 12.547930000000001 17.42495 12.3388 1.041050
X 19.43983 12.474160000000001 13.64872 1.099158
X 18.5183 18.84692 11.407989999999998 1.039669
X 17.07733 11.36387 14.64265 1.079760
X 11.75668 13.10167 16.44821 1.104671
X 18.71743 15.03176 12.550939999999999 1.110403
X 20.65827 9.55674 14.92035 1.032748
X 13.92321 14.86942 13.996200000000002 1.102728
X 23.351670000000002 8.55288 15.74947 1.129921
X 24.05849 15.96406 12.58865 1.083159
X 29.55726 14.1205 10.9772 1.133202
X 22.40924 11.95345 14.81654 1.058373
X 20.51294 17.07083 12.49434 1.108559
X 27.09778 12.34739 13.50028 1.120017
X 25.82237 18.61724 11.48814 1.125350
X 25.137269999999997 10.905640000000002 14.76316 1.124226
X 20.09905 13.022670000000002 16.33762 1.085567
X 26.781229999999997 14.978929999999998 12.28697 1.101496
X 29.032510000000002 9.92741 14.69885 1.101588
X 22.192189999999997 14.62561 14.07204 1.105175
X -19.312530000000002 15.85504 15.513259999999999 1.115994
X -8.8867 1.9650999999999998 12.743260000000001 1.128675
X -12.560780000000001 21.14955 10.621609999999999 1.024553
X -19.81642 19.59683 15.16153 1.125380
X -12.37209 2.67812 12.63136 1.136070
X -15.459959999999999 19.75716 13.38071 1.070976
X -6.70827 4.36683 11.483740000000001 1.091807
X -17.31172 18.15159 14.4489 1.122990
X -22.75502 20.14824 16.17286 1.096547
X -15.749690000000001 22.328739999999996 12.157029999999999 1.079135
X -13.87943 17.32409 14.48937 1.009831
X -20.126360000000002 22.020699999999998 13.74389 1.139220
X -11.7589 15.542560000000002 15.56775 0.994339
X 5.2631499999999996 12.303360000000001 14.02308 0.818772
X 10.604519999999999 2.71868 7.154660000000001 0.830714
X -11.120149999999999 23.64777 15.2329 0.780511
X -4.54499 2.74303 12.600180000000002 0.976262
X 20.45203 11.68278 5.77534 0.943150
X -5.29139 12.234100000000002 19.76017 0.870118
X 14.068940000000001 4.564579999999999 0.82383 0.735399
X -14.76618 20.18939 16.28133 0.925968
X 13.75729 19.46074 7.19993 1.023026
X 7.72795 9.76559 0.99915 0.908082
X -5.3472 4.92771 14.84389 0.882998
X -0.05821 8.57163 9.36228 0.920244
X 8.3993 12.35509 11.361540000000002 0.895857
X 13.97898 3.2369399999999997 12.9175 0.832392
X 14.89554 8.05505 8.57308 0.807023
X 17.79878 4.99942 6.827680000000001 0.815420
X 2.20133 7.73221 8.00426 0.860442
X 15.16507 15.511289999999999 0.011199999999999998 0.818090
X -2.85792 21.44638 3.7019400000000005 0.956949
X -3.18072 20.732509999999998 21.81662 0.862674
X 4.57658 21.3303 7.64529 0.877579
X 14.80508 7.466080000000001 11.22645 0.860100
X 7.40485 10.82853 14.922509999999999 0.865465
X -11.85836 19.93516 18.08276 0.859805
X 14.06776 12.26196 4.27583 0.883839
X -5.104959999999999 18.86833 18.73484 0.862363
X 8.04553 19.82094 13.765339999999998 0.914876
X -6.275810000000001 22.44925 9.468060000000001 0.979974
X 10.90239 13.322009999999999 4.27914 0.902137
X 2.55365 18.46089 7.4474 0.850199
X -0.19641999999999998 15.50934 10.376259999999998 0.832998
X 0.0008600000000000001 21.466949999999997 8.19426 0.907645
X 11.01401 21.591369999999998 11.15818 0.956046
X 10.005299999999998 17.05878 14.61185 0.982261
X 19.92696 20.42399 1.04532 1.008779
X 12.064490000000001 15.878829999999999 15.86136 1.102953
X 22.358530000000002 1.87924 13.1306 1.074543
X 18.87454 21.51697 11.39573 1.082017
X 11.728940000000001 19.53794 15.303629999999998 1.126782
X 19.11252 2.96577 12.755469999999999 1.004366
X 16.402749999999997 19.61968 13.51025 1.112146
X 24.44348 4.364879999999999 11.54962 1.116213
X 14.13144 18.32562 14.69468 1.122838
X 9.024180000000001 20.256 16.463630000000002 1.059021
X 15.77711 22.1503 12.23749 1.111435
X 17.56466 17.10143 15.14671 1.087061
X 11.09972 21.823610000000002 13.88974 1.114408
X 20.15698 15.943819999999999 15.705659999999998 1.116227
X 21.17015 23.27757 12.760750000000002 1.143647
X 26.632889999999996 21.28748 11.0239 1.126576
X 19.38661 19.12595 14.92313 1.039904
X 26.695050000000002 2.80802 12.419720000000002 1.122824
X 24.12262 19.86804 13.491679999999999 1.131992
X 32.45197 4.18671 11.79975 1.128068
X 22.09187 18.29324 14.809989999999999 1.111036
X 16.31045 20.42407 16.262259999999998 1.066671
X 23.63196 22.259030000000003 12.21241 1.128116
X 25.46885 17.42746 14.51733 1.083753
X 19.234560000000002 21.85115 14.203669999999999 1.059866
X -21.845010000000002 22.866889999999998 15.75676 1.115035
X -11.74878 8.90986 12.68479 1.102615
X -6.3675999999999995 6.94074 11.0682 1.095067
X -13.446 4.82442 15.14626 1.126541
X -15.35591 10.058530000000001 12.00315 1.084988
X -8.7014 5.42971 13.630949999999999 1.120762
X -10.28125 11.620360000000002 11.76368 1.084251
X -10.928009999999999 4.12719 14.65141 1.128536
X -16.04675 5.83466 16.28657 1.106583
X -9.28594 7.93031 12.385409999999998 1.111832
X -7.16517 2.8059000000000003 14.97091 1.063808
X -13.94885 7.5143 14.05285 1.115788
X -3.45533 21.27103 18.99076 0.833146
X -2.58005 10.08613 9.3766 1.047920
X 11.15222 4.78359 0.5794699999999999 0.780206
X -17.5675 21.95928 21.58547 0.859660
X -7.64287 10.65776 12.200930000000001 1.008375
X 6.35685 14.243170000000001 8.125869999999999 0.807912
X 10.969899999999999 6.14227 16.09694 0.856806
X 5.71946 12.31141 18.45575 0.870163
X -8.48691 5.6963799999999996 16.41433 0.958642
X -9.53356 8.377320000000001 18.01898 0.811532
X -12.329730000000001 19.5809 14.9048 0.939999
X -5.88185 7.5541599999999995 13.92101 0.989457
X -1.89229 6.09239 10.23455 1.027113
X 5.92221 3.04662 8.09718 0.834812
X 2.0383899999999997 23.76912 17.166269999999997 0.805677
X 8.9564 5.649100000000001 11.0525 0.858375
X -16.029310000000002 22.95991 18.8532 0.858084
X 3.7455100000000003 3.23849 10.52783 0.840158
X 29.47334 1.47444 0.32161 0.992797
X -4.16016 17.86938 14.45561 0.834653
X -8.130650000000001 13.7666 20.08701 0.890022
X 18.866979999999998 6.504760000000001 1.78852 0.882663
X 3.7295299999999996 18.68824 16.32718 0.822424
X 3.82395 14.76533 12.004909999999999 0.837627
X -7.39927 15.956900000000001 12.79138 1.000571
X 6.220210000000001 15.099020000000001 3.4061399999999997 0.807326
X 0.16853 17.04367 8.19137 0.871937
X -9.68067 18.794059999999998 15.26702 0.933511
X 8.73256 13.592709999999999 14.32659 0.834869
X -10.214179999999999 14.73091 18.26427 0.905497
X -9.14444 21.67368 15.063569999999999 0.834552
X 12.821169999999999 13.490310000000001 8.68764 0.824434
X 7.01196 4.49826 17.86142 0.871325
X 20.43122 4.39008 4.09284 0.877382
X 16.16124 2.92937 14.92381 1.006621
X 14.05584 11.023689999999998 8.28629 0.817655
X 9.12814 22.947989999999997 15.71853 1.119028
X 19.479390000000002 8.80395 12.485610000000001 1.010648
X 24.80546 6.9780299999999995 10.83487 1.110164
X 18.112280000000002 5.083950000000001 14.95533 1.053017
X 15.563130000000001 10.1283 12.62269 0.991139
X 22.85344 5.490810000000001 13.65898 1.111335
X 21.452270000000002 11.28424 11.73932 1.109743
X 20.6221 4.03914 14.814810000000001 1.114877
X 15.545720000000001 6.0587800000000005 16.59953 0.992164
X 22.219099999999997 7.74889 12.36138 1.116919
X 24.12649 3.0171799999999998 14.939530000000001 1.130901
X 17.26282 7.616079999999999 13.941099999999999 1.017153
X 17.21277 22.96567 15.638110000000001 1.127448
X 27.38825 8.90482 12.731060000000001 1.143797
X 32.60264 7.105040000000001 11.22802 1.103835
X 25.989110000000004 5.2874 15.1027 1.141157
X 23.86915 9.98312 12.357959999999999 1.125501
X 30.56511 5.17678 13.50965 1.129141
X 29.30676 11.519839999999999 11.816279999999999 1.121574
X 28.23142 3.8629200000000004 14.513119999999999 1.136127
X 22.75824 5.960459999999999 16.640539999999998 1.117461
X 29.68575 7.67608 12.179269999999999 1.132073
X 31.94913 2.40168 15.094050000000001 1.114137
X 25.30391 7.630059999999999 13.93848 1.139223
X -19.14779 4.3655100000000004 21.241880000000002 1.110036
X -18.304370000000002 11.9039 18.28471 1.103363
X -12.69491 9.47925 16.87611 1.114621
X -19.49222 8.114519999999999 20.69256 1.118165
X -21.70286 12.7396 17.843880000000002 1.098351
X -15.02784 7.74653 18.87772 1.100905
X -16.04674 14.18166 17.4793 1.088335
X -17.1851 6.88971 20.148480000000003 1.091378
X -22.41911 8.51205 21.643530000000002 1.106807
X -15.69871 10.28767 17.86756 1.114962
X -13.58638 5.5126100000000005 20.78741 1.033036
X -20.323030000000003 10.379380000000001 19.5077 1.111280
X 14.62936 17.858259999999998 4.53315 0.870954
X -12.612509999999999 20.65049 20.57128 0.880317
X 11.62184 19.771829999999998 0.8969 0.878037
X -3.36806 6.21964 12.669440000000002 0.874129
X -13.92111 12.520579999999999 18.22867 1.085099
X 3.70203 20.635270000000002 11.7086 0.843439
X 9.6186 7.2799700000000005 13.22365 0.899460
X -2.6137500000000005 20.99136 16.011020000000002 0.827267
X -14.64563 8.11717 21.763910000000003 1.057316
X 19.68542 9.10582 6.53196 0.891356
X 3.90347 7.341990000000001 4.109439999999999 0.955570
X 1.4727599999999998 16.05129 16.96874 0.841391
X 8.01017 15.73145 12.8182 0.817968
X 14.51015 1.73988 0.75096 0.802648
X 3.02554 5.58905 19.34148 0.872969
X 19.45255 8.58034 3.8940799999999998 0.844221
X -17.218500000000002 18.3022 21.6595 0.942046
X 0.11899 11.471340000000001 13.17643 0.829554
X 16.86476 11.951970000000001 7.88709 0.889737
X -4.54235 4.92893 17.33519 0.826770
X -8.962860000000001 20.617960000000004 21.25136 0.910836
X 10.28285 16.200870000000002 0.16774 0.945023
X 1.88863 8.10443 16.84485 0.833238
X -14.705259999999999 22.96189 16.493199999999998 0.772663
X -10.827929999999999 22.593649999999997 19.13077 0.817458
X 20.57804 5.08351 6.9237899999999994 0.951767
X 12.85352 15.916889999999999 5.15956 0.954302
X 2.5773 12.36771 11.61189 0.807729
X -8.5134 11.805330000000001 14.663079999999999 0.943653
X 1.94156 11.99358 15.99784 0.834906
X 18.14939 3.4144400000000004 9.542159999999999 0.883994
X 22.612009999999998 6.0981700000000005 3.35536 0.895130
X -1.36629 19.02338 17.93057 0.829719
X 7.795459999999999 6.749460000000001 15.18727 0.905623
X 10.141150000000001 4.9091000000000005 20.48623 1.003972
X 4.00359 3.63058 4.7005 1.011909
X 12.50475 3.9543299999999997 21.471 1.056993
X 13.217730000000001 11.39022 17.96339 1.091007
X 18.571009999999998 9.76752 16.661550000000002 1.104641
X 11.81876 7.3315600000000005 20.773039999999998 1.048820
X 9.79313 12.26378 18.12988 1.060916
X 16.554 7.846919999999999 19.02453 1.142824
X 15.255460000000001 13.933800000000002 17.51387 1.108343
X 14.41386 6.09626 20.00107 1.100991
X 8.76619 7.987349999999999 21.669870000000003 1.078115
X 15.964970000000001 10.44282 18.00869 1.110079
X 18.13953 5.34179 20.34361 1.126766
X 11.322330000000001 10.14181 19.47578 1.019436
X 20.27066 3.9676899999999997 21.3056 1.115209
X 21.30174 11.61626 18.54886 1.085614
X 26.70801 9.468720000000001 16.51822 1.127747
X 19.66978 7.808540000000001 20.43008 1.115841
X 17.62227 12.646429999999999 17.96088 1.124114
X 24.27901 7.94222 18.909750000000003 1.114803
X 23.062649999999998 13.806849999999999 17.08856 1.080626
X 22.31405 6.90719 20.378 1.086530
X 16.51404 8.214310000000001 21.82309 1.110924
X 23.81414 10.53431 17.61759 1.088027
X -21.2581 5.85745 20.39027 1.138372
X 18.849899999999998 10.079849999999999 19.43325 1.115184
X -21.816840000000003 11.424589999999998 21.537280000000003 1.072872
X -21.01792 19.09576 18.37772 1.103604
X -15.58705 16.67812 16.57949 1.046924
X -22.512150000000002 15.228090000000002 20.1112 1.025107
X -24.853369999999998 19.87155 18.0952 1.113816
X -18.08325 15.37398 18.89247 1.093190
X -19.2075 21.61906 17.11014 1.075888
X -19.96475 13.8009 20.21652 1.097704
X -25.6353 15.76333 21.812710000000003 1.107748
X -18.74394 17.77531 17.70687 1.087846
X -16.62956 12.90905 20.355379999999997 1.104722
X -23.19913 17.65172 19.25665 1.099037
X -14.66518 11.01382 21.129060000000003 0.986557
X 9.166450000000001 20.990090000000002 9.1701 0.826703
X -1.20688 5.04149 19.05429 0.839637
X -0.6019399999999999 3.1187300000000002 13.019300000000001 0.785943
X -17.04277 19.913069999999998 17.85526 1.010552
X -7.86585 8.46724 15.61122 0.952941
X 16.60049 1.2839900000000002 8.76189 0.816893
X 9.74718 11.42312 1.8235899999999998 0.864501
X -17.52183 15.633870000000002 21.492749999999997 0.979798
X -7.64147 21.02563 12.75404 0.877076
X -12.01969 13.60753 20.27676 0.945833
X 18.70735 3.99285 0.7516200000000001 0.889130
X 5.25913 4.45961 20.53367 0.802324
X 7.3822 13.82849 0.42480999999999997 0.951697
X 3.7671300000000003 21.28797 4.86473 0.823092
X 10.802480000000001 5.46753 7.15955 0.855498
X 3.80658 9.93959 14.764850000000001 0.820623
X 21.21127 7.721780000000001 0.22970999999999997 0.918253
X -1.27324 11.824449999999999 17.83735 0.789226
X 5.5292200000000005 16.501820000000002 16.16131 0.748739
X 0.44484999999999997 14.290210000000002 12.68388 0.854441
X -7.23368 18.40138 14.12716 0.892020
X -0.13041 11.14217 8.1133 0.843091
X -6.467549999999999 22.856830000000002 14.97217 0.872750
X -0.31122 17.69859 15.69535 0.882332
X 9.88021 20.88288 3.53289 0.904645
X 20.815769999999997 2.92611 8.317250000000001 0.984646
X -3.9649400000000004 11.74953 16.92668 0.835347
X 2.45497 20.47953 9.296299999999999 0.910871
X 11.75289 5.522049999999999 11.10244 0.856615
X -0.8576 18.29524 11.015049999999999 0.810110
X 13.77119 11.51239 1.4425599999999998 0.884215
X 4.02955 19.933590000000002 21.07583 0.895659
X 24.363709999999998 6.28036 0.79414 0.918419
X 7.13588 12.37214 20.747390000000003 1.016205
X -1.33217 22.82588 17.90418 0.837994
X 9.27732 10.722000000000001 21.22709 1.115585
X 10.270410000000002 18.90318 18.56247 1.113341
X 15.15574 16.43572 16.55675 1.064022
X 8.58027 14.731449999999999 20.59922 1.066272
X 6.88441 19.61508 18.15862 0.946107
X 13.2142 14.88907 19.187289999999997 1.113883
X 12.24485 21.44037 17.2947 1.131817
X 11.01493 13.3845 20.28141 1.124461
X 5.60783 15.379259999999999 21.89769 1.052620
X 12.788219999999999 17.55554 18.22105 1.083608
X 15.03453 12.640979999999999 20.51214 1.123258
X 8.45204 17.37805 19.9249 0.927029
X 17.20788 11.18204 21.39023 1.120898
X 18.16807 19.05683 18.2128 1.101067
X 23.690579999999997 16.846140000000002 16.63272 1.108892
X 16.61493 14.957640000000001 20.707620000000002 1.131680
X 14.446840000000002 19.81886 18.05848 1.113553
X 21.506690000000003 15.291060000000002 18.92559 1.100999
X 20.284909999999996 21.42257 17.05673 1.071709
X 19.15189 13.86269 19.94272 1.101782
X 13.59006 15.79503 21.762389999999996 1.125155
X 20.47157 17.59195 17.77842 1.117290
X -24.06899 12.72221 20.559530000000002 1.088901
X 16.03539 17.28921 19.20304 1.121414
X -25.0562 18.42295 21.45754 1.099558
X -14.96705 4.57195 18.359840000000002 1.123441
X -9.55116 2.6814999999999998 16.67466 1.134675
X -26.10431 22.1902 20.43946 1.089558
X -18.406769999999998 5.682549999999999 17.6077 1.113203
X -21.23315 22.53928 18.86129 1.070418
X -13.07161 6.7242 17.16096 1.140894
X -23.50809 20.915309999999998 20.259819999999998 1.111157
X -28.638379999999998 23.31953 21.61909 1.078787
X -12.47263 3.32201 17.72605 1.130961
X -19.371579999999998 19.808790000000002 20.71225 0.968282
X -17.33644 3.1799100000000005 19.29177 1.113193
X 11.32612 12.87574 0.38424 0.952377
X 8.39969 3.25998 1.51619 0.888180
X -5.27609 20.62472 11.399220000000001 0.947537
X -1.5171899999999998 14.044989999999999 7.33788 0.974747
X -10.73077 5.50712 17.95859 1.069309
X -6.325380000000001 10.12483 17.15191 0.892378
X 19.02016 1.9902600000000001 6.5333 0.896427
X 17.70007 3.62148 3.4661999999999997 0.851641
X -20.90061 23.29248 21.53044 1.010288
X 2.7042300000000004 22.04949 19.362479999999998 0.975707
X 3.2858 22.332700000000003 13.889689999999998 0.869054
X -3.68063 22.48369 12.634730000000001 0.854408
X 5.4343900000000005 19.752879999999998 3.2443100000000005 0.818796
X 6.29625 19.45766 0.36953 0.826705
X 0.14608 21.35173 3.6323499999999997 0.876348
X 16.28408 1.2940399999999999 2.7721299999999998 0.812962
X 8.06737 22.214489999999998 12.40036 0.879461
X -4.23756 14.552050000000001 20.295610000000003 0.807152
X 3.9001799999999998 3.1552200000000004 16.55608 0.887527
X 2.6184200000000004 7.36395 13.766739999999999 0.827973
X 16.83378 14.957279999999999 4.05797 0.852403
X 16.692819999999998 20.02836 0.11754 0.842138
X 7.25592 6.498080000000001 19.78977 0.823454
X 11.92207 10.429010000000002 10.117460000000001 0.845286
X -7.33396 20.828760000000003 17.08387 0.903071
X 0.34714 22.59929 15.422070000000001 0.828772
X -5.613580000000001 3.0978299999999996 20.872899999999998 0.906517
X -1.9374 13.17652 20.15435 0.869573
X 3.38213 10.94274 19.3614 0.859098
X 16.56702 15.8376 6.58253 0.975328
X 8.09995 16.9555 16.87808 0.832325
X 14.46209 13.7868 6.43079 0.897485
X -0.83232 8.38073 12.49244 0.858058
X -14.56194 15.11289 20.379710000000003 1.083874
X -7.30626 10.84075 21.41505 0.833939
X 10.98987 21.12629 7.12692 0.933338
X 6.201569999999999 18.396250000000002 21.18335 1.000826
X 16.51803 4.09755 18.20944 1.093794
X 22.03951 2.4318999999999997 16.58868 1.107098
X 5.67856 22.26219 20.90312 1.091343
X 13.14235 5.2667399999999995 17.70845 0.957494
X 10.215689999999999 22.19073 19.0727 1.111485
X 18.3092 6.96272 17.05947 1.116461
X 8.07119 20.97211 20.33809 1.113174
X 24.02716 19.74384 0.15039 1.006634
X 19.09576 3.1391799999999996 18.110059999999997 1.103071
X 12.02637 20.05098 20.401069999999997 1.118794
X 14.433290000000001 3.0693799999999998 19.5916 1.051851
X 14.29516 18.501289999999997 21.05584 1.118137
X 24.522669999999998 4.52642 18.283830000000002 1.131274
X 29.60535 2.5049300000000003 16.54464 1.125794
X 13.63688 22.41047 20.74136 1.116208
X 20.52308 5.73445 18.33121 1.098515
X 18.07771 22.45426 18.74552 1.114027
X 26.257649999999998 6.90747 17.3159 1.130492
X 16.02657 20.889509999999998 20.07301 1.123597
X 10.44957 22.814149999999998 21.757939999999998 1.115885
X 26.7162 3.3244000000000002 17.5757 1.134729
X -27.34539 19.822090000000003 20.4622 1.117388
X 22.21496 3.20334 19.363239999999998 1.126865
